/*---------------------------------------------------------------------------*\
| =========                 |                                                 |
| \\      /  F ield         | OpenFOAM: The Open Source CFD Toolbox           |
|  \\    /   O peration     | Version:  4.1                                   |
|   \\  /    A nd           | Web:      www.OpenFOAM.org                      |
|    \\/     M anipulation  |                                                 |
\*---------------------------------------------------------------------------*/
Build  : 4.1
Exec   : buoyantPimpleFoam -parallel
Date   : Dec 18 2017
Time   : 13:44:00
Host   : "samu"
PID    : 2638
Case   : /home/samu/OpenFOAM/samu-4.1/run/Wassertank_Rohr
nProcs : 4
Slaves : 
3
(
"samu.2640"
"samu.2641"
"samu.2642"
)

Pstream initialized with:
    floatTransfer      : 0
    nProcsSimpleSum    : 0
    commsType          : nonBlocking
    polling iterations : 0
sigFpe : Enabling floating point exception trapping (FOAM_SIGFPE).
fileModificationChecking : Monitoring run-time modified files using timeStampMaster
allowSystemOperations : Allowing user-supplied system call operations

// * * * * * * * * * * * * * * * * * * * * * * * * * * * * * * * * * * * * * //
Create time

Create mesh for time = 636


PIMPLE: Operating solver in PISO mode

Reading thermophysical properties

Selecting thermodynamics package 
{
    type            heRhoThermo;
    mixture         pureMixture;
    transport       polynomial;
    thermo          hPolynomial;
    equationOfState icoPolynomial;
    specie          specie;
    energy          sensibleEnthalpy;
}

Reading field U

Reading/calculating face flux field phi

Creating turbulence model

Selecting turbulence model type RAS
Selecting RAS turbulence model kEpsilon
kEpsilonCoeffs
{
    Cmu             0.09;
    C1              1.44;
    C2              1.92;
    C3              -0.33;
    sigmak          1;
    sigmaEps        1.3;
}


Reading g

Reading hRef
Calculating field g.h

Reading field p_rgh

Creating field dpdt

Creating field kinetic energy K

No MRF models present

Radiation model not active: radiationProperties not found
Selecting radiationModel none
No finite volume options present

Courant Number mean: 0.0004670228898 max: 0.08462195006

Starting time loop

Courant Number mean: 0.0004670228898 max: 0.08462195006
Time = 636.005

diagonal:  Solving for rho, Initial residual = 0, Final residual = 0, No Iterations 0
PIMPLE: iteration 1
DILUPBiCG:  Solving for Ux, Initial residual = 7.347813351e-05, Final residual = 5.264518831e-09, No Iterations 1
DILUPBiCG:  Solving for Uy, Initial residual = 0.0001346100644, Final residual = 7.579215933e-09, No Iterations 1
DILUPBiCG:  Solving for Uz, Initial residual = 3.844162451e-06, Final residual = 3.932464197e-10, No Iterations 1
DILUPBiCG:  Solving for h, Initial residual = 1.157714412e-06, Final residual = 4.071404528e-10, No Iterations 1
GAMG:  Solving for p_rgh, Initial residual = 0.001838879489, Final residual = 1.490263989e-05, No Iterations 3
diagonal:  Solving for rho, Initial residual = 0, Final residual = 0, No Iterations 0
time step continuity errors : sum local = 7.741438336e-10, global = -2.197708231e-10, cumulative = -2.197708231e-10
GAMG:  Solving for p_rgh, Initial residual = 0.0002485511013, Final residual = 7.254720572e-07, No Iterations 5
diagonal:  Solving for rho, Initial residual = 0, Final residual = 0, No Iterations 0
time step continuity errors : sum local = 3.76976419e-11, global = -7.690661139e-13, cumulative = -2.205398892e-10
DILUPBiCG:  Solving for epsilon, Initial residual = 9.945116613e-07, Final residual = 9.945116613e-07, No Iterations 0
DILUPBiCG:  Solving for k, Initial residual = 2.944566324e-06, Final residual = 5.433954222e-09, No Iterations 1
ExecutionTime = 2.88 s  ClockTime = 5 s

Courant Number mean: 0.0004670293469 max: 0.08462090997
Time = 636.01

diagonal:  Solving for rho, Initial residual = 0, Final residual = 0, No Iterations 0
PIMPLE: iteration 1
DILUPBiCG:  Solving for Ux, Initial residual = 2.036832737e-05, Final residual = 2.682991231e-09, No Iterations 1
DILUPBiCG:  Solving for Uy, Initial residual = 4.959600089e-05, Final residual = 3.969647185e-09, No Iterations 1
DILUPBiCG:  Solving for Uz, Initial residual = 2.424416516e-06, Final residual = 3.637034448e-10, No Iterations 1
DILUPBiCG:  Solving for h, Initial residual = 1.156727188e-06, Final residual = 3.593790627e-10, No Iterations 1
GAMG:  Solving for p_rgh, Initial residual = 0.000359515738, Final residual = 1.499181718e-06, No Iterations 3
diagonal:  Solving for rho, Initial residual = 0, Final residual = 0, No Iterations 0
time step continuity errors : sum local = 7.788501831e-11, global = 1.054762028e-11, cumulative = -2.099922689e-10
GAMG:  Solving for p_rgh, Initial residual = 3.897927074e-05, Final residual = 7.851692364e-07, No Iterations 2
diagonal:  Solving for rho, Initial residual = 0, Final residual = 0, No Iterations 0
time step continuity errors : sum local = 4.078635961e-11, global = -2.080917224e-12, cumulative = -2.120731861e-10
DILUPBiCG:  Solving for epsilon, Initial residual = 1.002697163e-06, Final residual = 1.586185604e-09, No Iterations 1
DILUPBiCG:  Solving for k, Initial residual = 2.929932818e-06, Final residual = 5.114609164e-09, No Iterations 1
ExecutionTime = 4.26 s  ClockTime = 7 s

Courant Number mean: 0.0004670370657 max: 0.08461983187
Time = 636.015

diagonal:  Solving for rho, Initial residual = 0, Final residual = 0, No Iterations 0
PIMPLE: iteration 1
DILUPBiCG:  Solving for Ux, Initial residual = 1.724291277e-05, Final residual = 2.471737295e-09, No Iterations 1
DILUPBiCG:  Solving for Uy, Initial residual = 4.961564175e-05, Final residual = 3.736037989e-09, No Iterations 1
DILUPBiCG:  Solving for Uz, Initial residual = 2.280137539e-06, Final residual = 3.685178428e-10, No Iterations 1
DILUPBiCG:  Solving for h, Initial residual = 1.157494673e-06, Final residual = 3.070540978e-10, No Iterations 1
GAMG:  Solving for p_rgh, Initial residual = 0.0001280614874, Final residual = 1.275829024e-06, No Iterations 3
diagonal:  Solving for rho, Initial residual = 0, Final residual = 0, No Iterations 0
time step continuity errors : sum local = 6.627361358e-11, global = 4.208068852e-12, cumulative = -2.078651173e-10
GAMG:  Solving for p_rgh, Initial residual = 1.864775041e-05, Final residual = 5.383887649e-07, No Iterations 2
diagonal:  Solving for rho, Initial residual = 0, Final residual = 0, No Iterations 0
time step continuity errors : sum local = 2.796757337e-11, global = 4.260753375e-12, cumulative = -2.036043639e-10
DILUPBiCG:  Solving for epsilon, Initial residual = 1.001938784e-06, Final residual = 1.560026858e-09, No Iterations 1
DILUPBiCG:  Solving for k, Initial residual = 2.929172919e-06, Final residual = 4.711761026e-09, No Iterations 1
ExecutionTime = 5.79 s  ClockTime = 9 s

Courant Number mean: 0.0004670451656 max: 0.08461871488
Time = 636.02

diagonal:  Solving for rho, Initial residual = 0, Final residual = 0, No Iterations 0
PIMPLE: iteration 1
DILUPBiCG:  Solving for Ux, Initial residual = 1.670015916e-05, Final residual = 2.494016167e-09, No Iterations 1
DILUPBiCG:  Solving for Uy, Initial residual = 4.976792487e-05, Final residual = 3.749836084e-09, No Iterations 1
DILUPBiCG:  Solving for Uz, Initial residual = 2.196968746e-06, Final residual = 3.697867961e-10, No Iterations 1
DILUPBiCG:  Solving for h, Initial residual = 1.157631354e-06, Final residual = 2.543256301e-10, No Iterations 1
GAMG:  Solving for p_rgh, Initial residual = 8.06566135e-05, Final residual = 6.236004536e-07, No Iterations 3
diagonal:  Solving for rho, Initial residual = 0, Final residual = 0, No Iterations 0
time step continuity errors : sum local = 3.239370581e-11, global = 2.947448982e-12, cumulative = -2.006569149e-10
GAMG:  Solving for p_rgh, Initial residual = 1.36860948e-05, Final residual = 3.858872864e-07, No Iterations 2
diagonal:  Solving for rho, Initial residual = 0, Final residual = 0, No Iterations 0
time step continuity errors : sum local = 2.004544996e-11, global = 1.314426096e-12, cumulative = -1.993424888e-10
DILUPBiCG:  Solving for epsilon, Initial residual = 1.003034583e-06, Final residual = 1.5323724e-09, No Iterations 1
DILUPBiCG:  Solving for k, Initial residual = 2.942344618e-06, Final residual = 4.323631748e-09, No Iterations 1
ExecutionTime = 7.44 s  ClockTime = 11 s

Courant Number mean: 0.0004670530648 max: 0.08461762438
Time = 636.025

diagonal:  Solving for rho, Initial residual = 0, Final residual = 0, No Iterations 0
PIMPLE: iteration 1
DILUPBiCG:  Solving for Ux, Initial residual = 1.650286876e-05, Final residual = 2.51931865e-09, No Iterations 1
DILUPBiCG:  Solving for Uy, Initial residual = 4.964192765e-05, Final residual = 3.790423805e-09, No Iterations 1
DILUPBiCG:  Solving for Uz, Initial residual = 2.184909723e-06, Final residual = 3.726771253e-10, No Iterations 1
DILUPBiCG:  Solving for h, Initial residual = 1.157632034e-06, Final residual = 2.037481119e-10, No Iterations 1
GAMG:  Solving for p_rgh, Initial residual = 6.418352923e-05, Final residual = 5.460467912e-07, No Iterations 3
diagonal:  Solving for rho, Initial residual = 0, Final residual = 0, No Iterations 0
time step continuity errors : sum local = 2.836507869e-11, global = 2.974172734e-12, cumulative = -1.963683161e-10
GAMG:  Solving for p_rgh, Initial residual = 1.238661922e-05, Final residual = 9.759859142e-07, No Iterations 1
diagonal:  Solving for rho, Initial residual = 0, Final residual = 0, No Iterations 0
time step continuity errors : sum local = 5.069920184e-11, global = 3.281958687e-12, cumulative = -1.930863574e-10
DILUPBiCG:  Solving for epsilon, Initial residual = 1.010029639e-06, Final residual = 1.510608626e-09, No Iterations 1
DILUPBiCG:  Solving for k, Initial residual = 2.973763453e-06, Final residual = 3.989039668e-09, No Iterations 1
ExecutionTime = 8.72 s  ClockTime = 13 s

Courant Number mean: 0.0004670609098 max: 0.08461664801
Time = 636.03

diagonal:  Solving for rho, Initial residual = 0, Final residual = 0, No Iterations 0
PIMPLE: iteration 1
DILUPBiCG:  Solving for Ux, Initial residual = 1.644813145e-05, Final residual = 2.545741757e-09, No Iterations 1
DILUPBiCG:  Solving for Uy, Initial residual = 4.966195269e-05, Final residual = 3.808237449e-09, No Iterations 1
DILUPBiCG:  Solving for Uz, Initial residual = 2.172340677e-06, Final residual = 3.7483036e-10, No Iterations 1
DILUPBiCG:  Solving for h, Initial residual = 1.158031011e-06, Final residual = 1.567263636e-10, No Iterations 1
GAMG:  Solving for p_rgh, Initial residual = 5.827746744e-05, Final residual = 6.160343861e-07, No Iterations 3
diagonal:  Solving for rho, Initial residual = 0, Final residual = 0, No Iterations 0
time step continuity errors : sum local = 3.200069566e-11, global = 2.740380707e-12, cumulative = -1.903459767e-10
GAMG:  Solving for p_rgh, Initial residual = 1.161643972e-05, Final residual = 9.518688074e-07, No Iterations 1
diagonal:  Solving for rho, Initial residual = 0, Final residual = 0, No Iterations 0
time step continuity errors : sum local = 4.94466099e-11, global = 3.215110583e-12, cumulative = -1.871308661e-10
DILUPBiCG:  Solving for epsilon, Initial residual = 1.017647274e-06, Final residual = 1.490257599e-09, No Iterations 1
DILUPBiCG:  Solving for k, Initial residual = 3.007343021e-06, Final residual = 3.699246733e-09, No Iterations 1
ExecutionTime = 10.08 s  ClockTime = 15 s

Courant Number mean: 0.0004670687951 max: 0.08461553185
Time = 636.035

diagonal:  Solving for rho, Initial residual = 0, Final residual = 0, No Iterations 0
PIMPLE: iteration 1
DILUPBiCG:  Solving for Ux, Initial residual = 1.62843784e-05, Final residual = 2.565466524e-09, No Iterations 1
DILUPBiCG:  Solving for Uy, Initial residual = 4.959535752e-05, Final residual = 3.892606218e-09, No Iterations 1
DILUPBiCG:  Solving for Uz, Initial residual = 2.182767681e-06, Final residual = 3.780633342e-10, No Iterations 1
DILUPBiCG:  Solving for h, Initial residual = 1.158609379e-06, Final residual = 1.139473041e-10, No Iterations 1
GAMG:  Solving for p_rgh, Initial residual = 5.592371928e-05, Final residual = 7.306626534e-07, No Iterations 3
diagonal:  Solving for rho, Initial residual = 0, Final residual = 0, No Iterations 0
time step continuity errors : sum local = 3.79555604e-11, global = 2.729539607e-12, cumulative = -1.844013265e-10
GAMG:  Solving for p_rgh, Initial residual = 1.154454686e-05, Final residual = 9.995204547e-07, No Iterations 1
diagonal:  Solving for rho, Initial residual = 0, Final residual = 0, No Iterations 0
time step continuity errors : sum local = 5.192269882e-11, global = 2.961635609e-12, cumulative = -1.814396909e-10
DILUPBiCG:  Solving for epsilon, Initial residual = 1.025350549e-06, Final residual = 1.470865087e-09, No Iterations 1
DILUPBiCG:  Solving for k, Initial residual = 3.041278576e-06, Final residual = 3.449063866e-09, No Iterations 1
ExecutionTime = 11.59 s  ClockTime = 17 s

Courant Number mean: 0.0004670767451 max: 0.08461445211
Time = 636.04

diagonal:  Solving for rho, Initial residual = 0, Final residual = 0, No Iterations 0
PIMPLE: iteration 1
DILUPBiCG:  Solving for Ux, Initial residual = 1.634716846e-05, Final residual = 2.604340767e-09, No Iterations 1
DILUPBiCG:  Solving for Uy, Initial residual = 4.964565296e-05, Final residual = 3.937778634e-09, No Iterations 1
DILUPBiCG:  Solving for Uz, Initial residual = 2.178821386e-06, Final residual = 3.804333323e-10, No Iterations 1
DILUPBiCG:  Solving for h, Initial residual = 1.159051677e-06, Final residual = 1.296960084e-10, No Iterations 1
GAMG:  Solving for p_rgh, Initial residual = 5.576005845e-05, Final residual = 6.499525466e-07, No Iterations 3
diagonal:  Solving for rho, Initial residual = 0, Final residual = 0, No Iterations 0
time step continuity errors : sum local = 3.376335957e-11, global = 3.162677948e-12, cumulative = -1.78277013e-10
GAMG:  Solving for p_rgh, Initial residual = 1.162154692e-05, Final residual = 3.636929764e-07, No Iterations 2
diagonal:  Solving for rho, Initial residual = 0, Final residual = 0, No Iterations 0
time step continuity errors : sum local = 1.889315294e-11, global = 1.393936269e-12, cumulative = -1.768830767e-10
DILUPBiCG:  Solving for epsilon, Initial residual = 1.033367929e-06, Final residual = 1.452556569e-09, No Iterations 1
DILUPBiCG:  Solving for k, Initial residual = 3.07532491e-06, Final residual = 3.232254209e-09, No Iterations 1
ExecutionTime = 12.86 s  ClockTime = 19 s

Courant Number mean: 0.0004670847873 max: 0.08461326735
Time = 636.045

diagonal:  Solving for rho, Initial residual = 0, Final residual = 0, No Iterations 0
PIMPLE: iteration 1
DILUPBiCG:  Solving for Ux, Initial residual = 1.629208561e-05, Final residual = 2.63462731e-09, No Iterations 1
DILUPBiCG:  Solving for Uy, Initial residual = 4.954741012e-05, Final residual = 4.014712534e-09, No Iterations 1
DILUPBiCG:  Solving for Uz, Initial residual = 2.186861512e-06, Final residual = 3.831984519e-10, No Iterations 1
DILUPBiCG:  Solving for h, Initial residual = 1.159498524e-06, Final residual = 1.511910922e-10, No Iterations 1
GAMG:  Solving for p_rgh, Initial residual = 5.409139066e-05, Final residual = 6.16321839e-07, No Iterations 3
diagonal:  Solving for rho, Initial residual = 0, Final residual = 0, No Iterations 0
time step continuity errors : sum local = 3.201674182e-11, global = 3.697606712e-12, cumulative = -1.7318547e-10
GAMG:  Solving for p_rgh, Initial residual = 1.137723547e-05, Final residual = 9.997503413e-07, No Iterations 1
diagonal:  Solving for rho, Initial residual = 0, Final residual = 0, No Iterations 0
time step continuity errors : sum local = 5.193591672e-11, global = 3.745724959e-12, cumulative = -1.69439745e-10
DILUPBiCG:  Solving for epsilon, Initial residual = 1.041435154e-06, Final residual = 1.4355549e-09, No Iterations 1
DILUPBiCG:  Solving for k, Initial residual = 3.162082333e-06, Final residual = 3.457445859e-09, No Iterations 1
ExecutionTime = 14.21 s  ClockTime = 20 s

Courant Number mean: 0.0004670928767 max: 0.08461221615
Time = 636.05

diagonal:  Solving for rho, Initial residual = 0, Final residual = 0, No Iterations 0
PIMPLE: iteration 1
DILUPBiCG:  Solving for Ux, Initial residual = 1.639270346e-05, Final residual = 2.663147146e-09, No Iterations 1
DILUPBiCG:  Solving for Uy, Initial residual = 4.95894339e-05, Final residual = 4.041887992e-09, No Iterations 1
DILUPBiCG:  Solving for Uz, Initial residual = 2.184987449e-06, Final residual = 3.863755055e-10, No Iterations 1
DILUPBiCG:  Solving for h, Initial residual = 1.164376989e-06, Final residual = 1.246191222e-09, No Iterations 1
GAMG:  Solving for p_rgh, Initial residual = 0.00191538492, Final residual = 1.32552422e-05, No Iterations 3
diagonal:  Solving for rho, Initial residual = 0, Final residual = 0, No Iterations 0
time step continuity errors : sum local = 6.898782687e-10, global = 1.402218547e-10, cumulative = -2.92178903e-11
GAMG:  Solving for p_rgh, Initial residual = 0.0003631429814, Final residual = 7.911576894e-07, No Iterations 5
diagonal:  Solving for rho, Initial residual = 0, Final residual = 0, No Iterations 0
time step continuity errors : sum local = 4.116407989e-11, global = 2.276385869e-12, cumulative = -2.694150443e-11
DILUPBiCG:  Solving for epsilon, Initial residual = 1.06280035e-06, Final residual = 2.133667144e-09, No Iterations 1
DILUPBiCG:  Solving for k, Initial residual = 3.384473204e-06, Final residual = 2.1244703e-09, No Iterations 1
ExecutionTime = 15.24 s  ClockTime = 22 s

Courant Number mean: 0.0004670985732 max: 0.084610907
Time = 636.055

diagonal:  Solving for rho, Initial residual = 0, Final residual = 0, No Iterations 0
PIMPLE: iteration 1
DILUPBiCG:  Solving for Ux, Initial residual = 8.048748825e-05, Final residual = 6.252665786e-09, No Iterations 1
DILUPBiCG:  Solving for Uy, Initial residual = 0.0001887323566, Final residual = 1.192184438e-08, No Iterations 1
DILUPBiCG:  Solving for Uz, Initial residual = 5.071427028e-06, Final residual = 5.265338688e-10, No Iterations 1
DILUPBiCG:  Solving for h, Initial residual = 1.16895126e-06, Final residual = 6.567198564e-10, No Iterations 1
GAMG:  Solving for p_rgh, Initial residual = 0.005242068073, Final residual = 2.838601941e-05, No Iterations 3
diagonal:  Solving for rho, Initial residual = 0, Final residual = 0, No Iterations 0
time step continuity errors : sum local = 1.478731235e-09, global = 1.783347843e-10, cumulative = 1.513932799e-10
GAMG:  Solving for p_rgh, Initial residual = 0.0003140705203, Final residual = 9.729771801e-07, No Iterations 6
diagonal:  Solving for rho, Initial residual = 0, Final residual = 0, No Iterations 0
time step continuity errors : sum local = 5.079180863e-11, global = -7.30194808e-13, cumulative = 1.506630851e-10
DILUPBiCG:  Solving for epsilon, Initial residual = 1.045675255e-06, Final residual = 3.332567733e-09, No Iterations 1
DILUPBiCG:  Solving for k, Initial residual = 3.10091053e-06, Final residual = 3.772543807e-07, No Iterations 1
ExecutionTime = 16.33 s  ClockTime = 23 s

Courant Number mean: 0.0004670309409 max: 0.08460982712
Time = 636.06

diagonal:  Solving for rho, Initial residual = 0, Final residual = 0, No Iterations 0
PIMPLE: iteration 1
DILUPBiCG:  Solving for Ux, Initial residual = 6.858712418e-05, Final residual = 4.9985996e-09, No Iterations 1
DILUPBiCG:  Solving for Uy, Initial residual = 0.0003081169553, Final residual = 1.565846097e-08, No Iterations 1
DILUPBiCG:  Solving for Uz, Initial residual = 9.714926729e-06, Final residual = 8.075052347e-10, No Iterations 1
DILUPBiCG:  Solving for h, Initial residual = 1.156699704e-06, Final residual = 1.552445586e-09, No Iterations 1
GAMG:  Solving for p_rgh, Initial residual = 0.004945784538, Final residual = 2.320723979e-05, No Iterations 3
diagonal:  Solving for rho, Initial residual = 0, Final residual = 0, No Iterations 0
time step continuity errors : sum local = 1.209804619e-09, global = -2.143414188e-10, cumulative = -6.367833371e-11
GAMG:  Solving for p_rgh, Initial residual = 0.0004453865263, Final residual = 7.78597852e-07, No Iterations 6
diagonal:  Solving for rho, Initial residual = 0, Final residual = 0, No Iterations 0
time step continuity errors : sum local = 4.050021929e-11, global = -2.827724329e-12, cumulative = -6.650605803e-11
DILUPBiCG:  Solving for epsilon, Initial residual = 9.919629366e-07, Final residual = 9.919629366e-07, No Iterations 0
DILUPBiCG:  Solving for k, Initial residual = 2.969709521e-06, Final residual = 5.298240619e-09, No Iterations 1
ExecutionTime = 17.36 s  ClockTime = 24 s

Courant Number mean: 0.0004670083469 max: 0.08460865345
Time = 636.065

diagonal:  Solving for rho, Initial residual = 0, Final residual = 0, No Iterations 0
PIMPLE: iteration 1
DILUPBiCG:  Solving for Ux, Initial residual = 7.825192253e-05, Final residual = 5.572634176e-09, No Iterations 1
DILUPBiCG:  Solving for Uy, Initial residual = 0.0001320133203, Final residual = 6.865486589e-09, No Iterations 1
DILUPBiCG:  Solving for Uz, Initial residual = 3.832015936e-06, Final residual = 3.910906077e-10, No Iterations 1
DILUPBiCG:  Solving for h, Initial residual = 1.224277116e-06, Final residual = 5.146770506e-10, No Iterations 1
GAMG:  Solving for p_rgh, Initial residual = 0.001995305535, Final residual = 9.439324831e-06, No Iterations 5
diagonal:  Solving for rho, Initial residual = 0, Final residual = 0, No Iterations 0
time step continuity errors : sum local = 4.903759736e-10, global = 4.130158367e-11, cumulative = -2.520447436e-11
GAMG:  Solving for p_rgh, Initial residual = 0.0003158316002, Final residual = 4.972162456e-07, No Iterations 6
diagonal:  Solving for rho, Initial residual = 0, Final residual = 0, No Iterations 0
time step continuity errors : sum local = 2.584872576e-11, global = 4.467793962e-13, cumulative = -2.475769497e-11
DILUPBiCG:  Solving for epsilon, Initial residual = 1.001186214e-06, Final residual = 2.468107694e-09, No Iterations 1
DILUPBiCG:  Solving for k, Initial residual = 2.934240318e-06, Final residual = 5.953458936e-09, No Iterations 1
ExecutionTime = 18.58 s  ClockTime = 26 s

Courant Number mean: 0.0004670307216 max: 0.08460768754
Time = 636.07

diagonal:  Solving for rho, Initial residual = 0, Final residual = 0, No Iterations 0
PIMPLE: iteration 1
DILUPBiCG:  Solving for Ux, Initial residual = 3.479450103e-05, Final residual = 3.823033237e-09, No Iterations 1
DILUPBiCG:  Solving for Uy, Initial residual = 9.298002872e-05, Final residual = 9.161040807e-09, No Iterations 1
DILUPBiCG:  Solving for Uz, Initial residual = 5.234200475e-06, Final residual = 5.191568714e-10, No Iterations 1
DILUPBiCG:  Solving for h, Initial residual = 1.20594887e-06, Final residual = 4.587789459e-10, No Iterations 1
GAMG:  Solving for p_rgh, Initial residual = 0.000377681504, Final residual = 1.953843275e-06, No Iterations 6
diagonal:  Solving for rho, Initial residual = 0, Final residual = 0, No Iterations 0
time step continuity errors : sum local = 1.015607884e-10, global = -6.50149155e-12, cumulative = -3.125918652e-11
GAMG:  Solving for p_rgh, Initial residual = 0.0001495938513, Final residual = 8.372307658e-07, No Iterations 4
diagonal:  Solving for rho, Initial residual = 0, Final residual = 0, No Iterations 0
time step continuity errors : sum local = 4.349105987e-11, global = 1.456594981e-12, cumulative = -2.980259154e-11
DILUPBiCG:  Solving for epsilon, Initial residual = 9.899006442e-07, Final residual = 9.899006442e-07, No Iterations 0
DILUPBiCG:  Solving for k, Initial residual = 2.910714444e-06, Final residual = 5.636294361e-09, No Iterations 1
ExecutionTime = 19.73 s  ClockTime = 27 s

Courant Number mean: 0.0004670366465 max: 0.08460624748
Time = 636.075

diagonal:  Solving for rho, Initial residual = 0, Final residual = 0, No Iterations 0
PIMPLE: iteration 1
DILUPBiCG:  Solving for Ux, Initial residual = 1.840501586e-05, Final residual = 2.495205157e-09, No Iterations 1
DILUPBiCG:  Solving for Uy, Initial residual = 5.124650742e-05, Final residual = 3.821189377e-09, No Iterations 1
DILUPBiCG:  Solving for Uz, Initial residual = 2.488021744e-06, Final residual = 3.811770138e-10, No Iterations 1
DILUPBiCG:  Solving for h, Initial residual = 1.154929829e-06, Final residual = 3.890539246e-10, No Iterations 1
GAMG:  Solving for p_rgh, Initial residual = 0.0001556128167, Final residual = 8.500524633e-07, No Iterations 6
diagonal:  Solving for rho, Initial residual = 0, Final residual = 0, No Iterations 0
time step continuity errors : sum local = 4.415663638e-11, global = -2.159494234e-12, cumulative = -3.196208577e-11
GAMG:  Solving for p_rgh, Initial residual = 6.985692955e-05, Final residual = 6.38776177e-07, No Iterations 3
diagonal:  Solving for rho, Initial residual = 0, Final residual = 0, No Iterations 0
time step continuity errors : sum local = 3.317529325e-11, global = 2.230915617e-12, cumulative = -2.973117015e-11
DILUPBiCG:  Solving for epsilon, Initial residual = 9.998661042e-07, Final residual = 9.998661042e-07, No Iterations 0
DILUPBiCG:  Solving for k, Initial residual = 2.908458825e-06, Final residual = 5.040477054e-09, No Iterations 1
ExecutionTime = 20.91 s  ClockTime = 29 s

Courant Number mean: 0.0004670372974 max: 0.08460493927
Time = 636.08

diagonal:  Solving for rho, Initial residual = 0, Final residual = 0, No Iterations 0
PIMPLE: iteration 1
DILUPBiCG:  Solving for Ux, Initial residual = 2.440325692e-05, Final residual = 2.845183688e-09, No Iterations 1
DILUPBiCG:  Solving for Uy, Initial residual = 6.545747273e-05, Final residual = 5.245321339e-09, No Iterations 1
DILUPBiCG:  Solving for Uz, Initial residual = 3.535092146e-06, Final residual = 4.548548275e-10, No Iterations 1
DILUPBiCG:  Solving for h, Initial residual = 1.156114564e-06, Final residual = 3.331145718e-10, No Iterations 1
GAMG:  Solving for p_rgh, Initial residual = 0.0001013175181, Final residual = 6.329329973e-07, No Iterations 7
diagonal:  Solving for rho, Initial residual = 0, Final residual = 0, No Iterations 0
time step continuity errors : sum local = 3.287146804e-11, global = 1.94928918e-12, cumulative = -2.778188097e-11
GAMG:  Solving for p_rgh, Initial residual = 7.105680023e-05, Final residual = 6.386809698e-07, No Iterations 3
diagonal:  Solving for rho, Initial residual = 0, Final residual = 0, No Iterations 0
time step continuity errors : sum local = 3.317921834e-11, global = -2.36426628e-12, cumulative = -3.014614725e-11
DILUPBiCG:  Solving for epsilon, Initial residual = 1.014896892e-06, Final residual = 2.534692279e-09, No Iterations 1
DILUPBiCG:  Solving for k, Initial residual = 2.916784243e-06, Final residual = 4.575006991e-09, No Iterations 1
ExecutionTime = 22.08 s  ClockTime = 30 s

Courant Number mean: 0.0004670459698 max: 0.08460383438
Time = 636.085

diagonal:  Solving for rho, Initial residual = 0, Final residual = 0, No Iterations 0
PIMPLE: iteration 1
DILUPBiCG:  Solving for Ux, Initial residual = 1.664273009e-05, Final residual = 2.481565807e-09, No Iterations 1
DILUPBiCG:  Solving for Uy, Initial residual = 5.004013827e-05, Final residual = 3.879348455e-09, No Iterations 1
DILUPBiCG:  Solving for Uz, Initial residual = 2.184277797e-06, Final residual = 3.718606457e-10, No Iterations 1
DILUPBiCG:  Solving for h, Initial residual = 1.162993492e-06, Final residual = 2.78420694e-10, No Iterations 1
GAMG:  Solving for p_rgh, Initial residual = 7.932126433e-05, Final residual = 6.242546797e-07, No Iterations 4
diagonal:  Solving for rho, Initial residual = 0, Final residual = 0, No Iterations 0
time step continuity errors : sum local = 3.242951371e-11, global = 8.790032708e-13, cumulative = -2.926714398e-11
GAMG:  Solving for p_rgh, Initial residual = 1.979223753e-05, Final residual = 4.103127836e-07, No Iterations 2
diagonal:  Solving for rho, Initial residual = 0, Final residual = 0, No Iterations 0
time step continuity errors : sum local = 2.131600532e-11, global = -5.390690678e-13, cumulative = -2.980621305e-11
DILUPBiCG:  Solving for epsilon, Initial residual = 1.020804207e-06, Final residual = 2.44754483e-09, No Iterations 1
DILUPBiCG:  Solving for k, Initial residual = 2.945720857e-06, Final residual = 4.200596471e-09, No Iterations 1
ExecutionTime = 23.38 s  ClockTime = 32 s

Courant Number mean: 0.000467054889 max: 0.08460270647
Time = 636.09

diagonal:  Solving for rho, Initial residual = 0, Final residual = 0, No Iterations 0
PIMPLE: iteration 1
DILUPBiCG:  Solving for Ux, Initial residual = 1.674673771e-05, Final residual = 2.515558943e-09, No Iterations 1
DILUPBiCG:  Solving for Uy, Initial residual = 5.085663144e-05, Final residual = 4.028576373e-09, No Iterations 1
DILUPBiCG:  Solving for Uz, Initial residual = 2.245273885e-06, Final residual = 3.788191714e-10, No Iterations 1
DILUPBiCG:  Solving for h, Initial residual = 1.158187727e-06, Final residual = 2.240672767e-10, No Iterations 1
GAMG:  Solving for p_rgh, Initial residual = 6.278847152e-05, Final residual = 6.017320159e-07, No Iterations 5
diagonal:  Solving for rho, Initial residual = 0, Final residual = 0, No Iterations 0
time step continuity errors : sum local = 3.126010288e-11, global = -1.495579503e-12, cumulative = -3.130179255e-11
GAMG:  Solving for p_rgh, Initial residual = 2.204877919e-05, Final residual = 4.245340758e-07, No Iterations 2
diagonal:  Solving for rho, Initial residual = 0, Final residual = 0, No Iterations 0
time step continuity errors : sum local = 2.205351588e-11, global = -2.994753548e-14, cumulative = -3.133174009e-11
DILUPBiCG:  Solving for epsilon, Initial residual = 1.027782519e-06, Final residual = 2.366944282e-09, No Iterations 1
DILUPBiCG:  Solving for k, Initial residual = 2.977459825e-06, Final residual = 3.86459766e-09, No Iterations 1
ExecutionTime = 24.89 s  ClockTime = 35 s

Courant Number mean: 0.0004670622151 max: 0.08460140459
Time = 636.095

diagonal:  Solving for rho, Initial residual = 0, Final residual = 0, No Iterations 0
PIMPLE: iteration 1
DILUPBiCG:  Solving for Ux, Initial residual = 1.654452583e-05, Final residual = 2.564311476e-09, No Iterations 1
DILUPBiCG:  Solving for Uy, Initial residual = 4.936189046e-05, Final residual = 3.800688146e-09, No Iterations 1
DILUPBiCG:  Solving for Uz, Initial residual = 2.187276783e-06, Final residual = 3.765201088e-10, No Iterations 1
DILUPBiCG:  Solving for h, Initial residual = 1.157792658e-06, Final residual = 1.740321424e-10, No Iterations 1
GAMG:  Solving for p_rgh, Initial residual = 5.952852074e-05, Final residual = 8.704426859e-07, No Iterations 3
diagonal:  Solving for rho, Initial residual = 0, Final residual = 0, No Iterations 0
time step continuity errors : sum local = 4.521717531e-11, global = 3.414893859e-12, cumulative = -2.791684623e-11
GAMG:  Solving for p_rgh, Initial residual = 1.253667936e-05, Final residual = 3.503635394e-07, No Iterations 2
diagonal:  Solving for rho, Initial residual = 0, Final residual = 0, No Iterations 0
time step continuity errors : sum local = 1.820091647e-11, global = 1.760651112e-12, cumulative = -2.615619512e-11
DILUPBiCG:  Solving for epsilon, Initial residual = 1.034918314e-06, Final residual = 2.294485065e-09, No Iterations 1
DILUPBiCG:  Solving for k, Initial residual = 3.009932978e-06, Final residual = 3.577986527e-09, No Iterations 1
ExecutionTime = 26.01 s  ClockTime = 37 s

Courant Number mean: 0.0004670699457 max: 0.0846001694
Time = 636.1

diagonal:  Solving for rho, Initial residual = 0, Final residual = 0, No Iterations 0
PIMPLE: iteration 1
DILUPBiCG:  Solving for Ux, Initial residual = 1.647441524e-05, Final residual = 2.597112034e-09, No Iterations 1
DILUPBiCG:  Solving for Uy, Initial residual = 4.936445531e-05, Final residual = 3.882431641e-09, No Iterations 1
DILUPBiCG:  Solving for Uz, Initial residual = 2.171123591e-06, Final residual = 3.776479489e-10, No Iterations 1
DILUPBiCG:  Solving for h, Initial residual = 1.159063751e-06, Final residual = 1.288220448e-10, No Iterations 1
GAMG:  Solving for p_rgh, Initial residual = 5.731355866e-05, Final residual = 4.522143607e-07, No Iterations 4
diagonal:  Solving for rho, Initial residual = 0, Final residual = 0, No Iterations 0
time step continuity errors : sum local = 2.349181177e-11, global = 1.599609812e-12, cumulative = -2.455658531e-11
GAMG:  Solving for p_rgh, Initial residual = 1.416306884e-05, Final residual = 2.892758818e-07, No Iterations 2
diagonal:  Solving for rho, Initial residual = 0, Final residual = 0, No Iterations 0
time step continuity errors : sum local = 1.502781652e-11, global = 2.367017601e-13, cumulative = -2.431988355e-11
DILUPBiCG:  Solving for epsilon, Initial residual = 1.042308764e-06, Final residual = 2.229492795e-09, No Iterations 1
DILUPBiCG:  Solving for k, Initial residual = 3.042996718e-06, Final residual = 3.333119818e-09, No Iterations 1
ExecutionTime = 27.04 s  ClockTime = 39 s

Courant Number mean: 0.0004670780457 max: 0.08459891665
Time = 636.105

diagonal:  Solving for rho, Initial residual = 0, Final residual = 0, No Iterations 0
PIMPLE: iteration 1
DILUPBiCG:  Solving for Ux, Initial residual = 1.634308819e-05, Final residual = 2.607392163e-09, No Iterations 1
DILUPBiCG:  Solving for Uy, Initial residual = 4.938361478e-05, Final residual = 3.987777577e-09, No Iterations 1
DILUPBiCG:  Solving for Uz, Initial residual = 2.166896014e-06, Final residual = 3.796669062e-10, No Iterations 1
DILUPBiCG:  Solving for h, Initial residual = 1.159568871e-06, Final residual = 1.21801719e-10, No Iterations 1
GAMG:  Solving for p_rgh, Initial residual = 5.578522984e-05, Final residual = 6.296907234e-07, No Iterations 3
diagonal:  Solving for rho, Initial residual = 0, Final residual = 0, No Iterations 0
time step continuity errors : sum local = 3.27122291e-11, global = 4.306827758e-12, cumulative = -2.001305579e-11
GAMG:  Solving for p_rgh, Initial residual = 1.163201568e-05, Final residual = 3.441963995e-07, No Iterations 2
diagonal:  Solving for rho, Initial residual = 0, Final residual = 0, No Iterations 0
time step continuity errors : sum local = 1.788107995e-11, global = 1.245305199e-12, cumulative = -1.876775059e-11
DILUPBiCG:  Solving for epsilon, Initial residual = 1.049782504e-06, Final residual = 2.169523496e-09, No Iterations 1
DILUPBiCG:  Solving for k, Initial residual = 3.076137435e-06, Final residual = 3.120657912e-09, No Iterations 1
ExecutionTime = 28.31 s  ClockTime = 41 s

Courant Number mean: 0.0004670860223 max: 0.08459768128
Time = 636.11

diagonal:  Solving for rho, Initial residual = 0, Final residual = 0, No Iterations 0
PIMPLE: iteration 1
DILUPBiCG:  Solving for Ux, Initial residual = 1.653213125e-05, Final residual = 2.65995577e-09, No Iterations 1
DILUPBiCG:  Solving for Uy, Initial residual = 4.938296725e-05, Final residual = 4.022253995e-09, No Iterations 1
DILUPBiCG:  Solving for Uz, Initial residual = 2.166649512e-06, Final residual = 3.828711236e-10, No Iterations 1
DILUPBiCG:  Solving for h, Initial residual = 1.159613069e-06, Final residual = 1.437226e-10, No Iterations 1
GAMG:  Solving for p_rgh, Initial residual = 5.50287017e-05, Final residual = 5.820874651e-07, No Iterations 3
diagonal:  Solving for rho, Initial residual = 0, Final residual = 0, No Iterations 0
time step continuity errors : sum local = 3.0239451e-11, global = 4.314078229e-12, cumulative = -1.445367236e-11
GAMG:  Solving for p_rgh, Initial residual = 1.142053644e-05, Final residual = 3.303483841e-07, No Iterations 2
diagonal:  Solving for rho, Initial residual = 0, Final residual = 0, No Iterations 0
time step continuity errors : sum local = 1.716180846e-11, global = 1.587236365e-12, cumulative = -1.286643599e-11
DILUPBiCG:  Solving for epsilon, Initial residual = 1.05731015e-06, Final residual = 2.115239121e-09, No Iterations 1
DILUPBiCG:  Solving for k, Initial residual = 3.17738994e-06, Final residual = 3.501827198e-09, No Iterations 1
ExecutionTime = 29.45 s  ClockTime = 44 s

Courant Number mean: 0.0004670951684 max: 0.0845964188
Time = 636.115

diagonal:  Solving for rho, Initial residual = 0, Final residual = 0, No Iterations 0
PIMPLE: iteration 1
DILUPBiCG:  Solving for Ux, Initial residual = 1.645249174e-05, Final residual = 2.686456264e-09, No Iterations 1
DILUPBiCG:  Solving for Uy, Initial residual = 4.927380345e-05, Final residual = 4.086792079e-09, No Iterations 1
DILUPBiCG:  Solving for Uz, Initial residual = 2.179893128e-06, Final residual = 3.863934529e-10, No Iterations 1
DILUPBiCG:  Solving for h, Initial residual = 1.165626516e-06, Final residual = 4.405465794e-09, No Iterations 1
GAMG:  Solving for p_rgh, Initial residual = 0.001925185958, Final residual = 1.312482405e-05, No Iterations 3
diagonal:  Solving for rho, Initial residual = 0, Final residual = 0, No Iterations 0
time step continuity errors : sum local = 6.831177447e-10, global = 1.207076724e-10, cumulative = 1.078412364e-10
GAMG:  Solving for p_rgh, Initial residual = 0.0003641490265, Final residual = 7.670256111e-07, No Iterations 5
diagonal:  Solving for rho, Initial residual = 0, Final residual = 0, No Iterations 0
time step continuity errors : sum local = 3.991062599e-11, global = 2.151162699e-12, cumulative = 1.099923991e-10
DILUPBiCG:  Solving for epsilon, Initial residual = 1.077618743e-06, Final residual = 4.385957599e-09, No Iterations 1
DILUPBiCG:  Solving for k, Initial residual = 3.36427964e-06, Final residual = 2.192497285e-09, No Iterations 1
ExecutionTime = 30.79 s  ClockTime = 46 s

Courant Number mean: 0.0004670978738 max: 0.08459511202
Time = 636.12

diagonal:  Solving for rho, Initial residual = 0, Final residual = 0, No Iterations 0
PIMPLE: iteration 1
DILUPBiCG:  Solving for Ux, Initial residual = 8.088513032e-05, Final residual = 6.283926764e-09, No Iterations 1
DILUPBiCG:  Solving for Uy, Initial residual = 0.000189264889, Final residual = 1.202077427e-08, No Iterations 1
DILUPBiCG:  Solving for Uz, Initial residual = 5.094268724e-06, Final residual = 5.274962281e-10, No Iterations 1
DILUPBiCG:  Solving for h, Initial residual = 1.16855681e-06, Final residual = 6.380551189e-10, No Iterations 1
GAMG:  Solving for p_rgh, Initial residual = 0.005220484747, Final residual = 2.755438512e-05, No Iterations 3
diagonal:  Solving for rho, Initial residual = 0, Final residual = 0, No Iterations 0
time step continuity errors : sum local = 1.43542329e-09, global = 1.951023982e-10, cumulative = 3.050947973e-10
GAMG:  Solving for p_rgh, Initial residual = 0.000318739555, Final residual = 9.159742304e-07, No Iterations 6
diagonal:  Solving for rho, Initial residual = 0, Final residual = 0, No Iterations 0
time step continuity errors : sum local = 4.781439814e-11, global = 7.979109041e-14, cumulative = 3.051745884e-10
DILUPBiCG:  Solving for epsilon, Initial residual = 1.061999351e-06, Final residual = 2.793600846e-08, No Iterations 1
DILUPBiCG:  Solving for k, Initial residual = 3.104994183e-06, Final residual = 1.746440564e-08, No Iterations 1
ExecutionTime = 32.74 s  ClockTime = 48 s

Courant Number mean: 0.0004670338629 max: 0.08459389229
Time = 636.125

diagonal:  Solving for rho, Initial residual = 0, Final residual = 0, No Iterations 0
PIMPLE: iteration 1
DILUPBiCG:  Solving for Ux, Initial residual = 6.844071314e-05, Final residual = 5.011619515e-09, No Iterations 1
DILUPBiCG:  Solving for Uy, Initial residual = 0.0003068269012, Final residual = 1.562684942e-08, No Iterations 1
DILUPBiCG:  Solving for Uz, Initial residual = 9.755070651e-06, Final residual = 8.145146055e-10, No Iterations 1
DILUPBiCG:  Solving for h, Initial residual = 1.158177913e-06, Final residual = 3.479602782e-09, No Iterations 1
GAMG:  Solving for p_rgh, Initial residual = 0.004908005821, Final residual = 2.331800025e-05, No Iterations 3
diagonal:  Solving for rho, Initial residual = 0, Final residual = 0, No Iterations 0
time step continuity errors : sum local = 1.215547946e-09, global = -2.118791086e-10, cumulative = 9.329547976e-11
GAMG:  Solving for p_rgh, Initial residual = 0.0004449008811, Final residual = 8.457378113e-07, No Iterations 6
diagonal:  Solving for rho, Initial residual = 0, Final residual = 0, No Iterations 0
time step continuity errors : sum local = 4.399331657e-11, global = -3.024258741e-12, cumulative = 9.027122102e-11
DILUPBiCG:  Solving for epsilon, Initial residual = 1.005023309e-06, Final residual = 5.640984215e-09, No Iterations 1
DILUPBiCG:  Solving for k, Initial residual = 2.946472099e-06, Final residual = 5.12789978e-09, No Iterations 1
ExecutionTime = 34.62 s  ClockTime = 50 s

Courant Number mean: 0.0004670093171 max: 0.08459263714
Time = 636.13

diagonal:  Solving for rho, Initial residual = 0, Final residual = 0, No Iterations 0
PIMPLE: iteration 1
DILUPBiCG:  Solving for Ux, Initial residual = 7.764670677e-05, Final residual = 5.611393023e-09, No Iterations 1
DILUPBiCG:  Solving for Uy, Initial residual = 0.0001315748636, Final residual = 6.951745464e-09, No Iterations 1
DILUPBiCG:  Solving for Uz, Initial residual = 3.819567623e-06, Final residual = 3.895356525e-10, No Iterations 1
DILUPBiCG:  Solving for h, Initial residual = 1.224244298e-06, Final residual = 5.506074041e-10, No Iterations 1
GAMG:  Solving for p_rgh, Initial residual = 0.001995397624, Final residual = 9.228463716e-06, No Iterations 5
diagonal:  Solving for rho, Initial residual = 0, Final residual = 0, No Iterations 0
time step continuity errors : sum local = 4.794383849e-10, global = 3.978594168e-11, cumulative = 1.300571627e-10
GAMG:  Solving for p_rgh, Initial residual = 0.000316083902, Final residual = 5.06089631e-07, No Iterations 6
diagonal:  Solving for rho, Initial residual = 0, Final residual = 0, No Iterations 0
time step continuity errors : sum local = 2.631132469e-11, global = 5.156779925e-13, cumulative = 1.305728407e-10
DILUPBiCG:  Solving for epsilon, Initial residual = 9.955125347e-07, Final residual = 9.955125347e-07, No Iterations 0
DILUPBiCG:  Solving for k, Initial residual = 2.910394164e-06, Final residual = 5.78561664e-09, No Iterations 1
ExecutionTime = 36.1 s  ClockTime = 53 s

Courant Number mean: 0.0004670316406 max: 0.0845915054
Time = 636.135

diagonal:  Solving for rho, Initial residual = 0, Final residual = 0, No Iterations 0
PIMPLE: iteration 1
DILUPBiCG:  Solving for Ux, Initial residual = 3.529088787e-05, Final residual = 3.766338225e-09, No Iterations 1
DILUPBiCG:  Solving for Uy, Initial residual = 9.302368872e-05, Final residual = 9.241104864e-09, No Iterations 1
DILUPBiCG:  Solving for Uz, Initial residual = 5.180380657e-06, Final residual = 5.163872515e-10, No Iterations 1
DILUPBiCG:  Solving for h, Initial residual = 1.205794194e-06, Final residual = 5.016045838e-10, No Iterations 1
GAMG:  Solving for p_rgh, Initial residual = 0.0003652231668, Final residual = 3.542445969e-06, No Iterations 5
diagonal:  Solving for rho, Initial residual = 0, Final residual = 0, No Iterations 0
time step continuity errors : sum local = 1.841446693e-10, global = -8.078131636e-12, cumulative = 1.224947091e-10
GAMG:  Solving for p_rgh, Initial residual = 0.0001489781488, Final residual = 9.581457345e-07, No Iterations 4
diagonal:  Solving for rho, Initial residual = 0, Final residual = 0, No Iterations 0
time step continuity errors : sum local = 4.977420543e-11, global = 9.761551453e-13, cumulative = 1.234708642e-10
DILUPBiCG:  Solving for epsilon, Initial residual = 1.004464882e-06, Final residual = 7.19943371e-09, No Iterations 1
DILUPBiCG:  Solving for k, Initial residual = 2.893691528e-06, Final residual = 5.466788559e-09, No Iterations 1
ExecutionTime = 37.72 s  ClockTime = 55 s

Courant Number mean: 0.0004670374585 max: 0.08459002062
Time = 636.14

diagonal:  Solving for rho, Initial residual = 0, Final residual = 0, No Iterations 0
PIMPLE: iteration 1
DILUPBiCG:  Solving for Ux, Initial residual = 1.875109802e-05, Final residual = 2.524289012e-09, No Iterations 1
DILUPBiCG:  Solving for Uy, Initial residual = 5.103654922e-05, Final residual = 3.828563605e-09, No Iterations 1
DILUPBiCG:  Solving for Uz, Initial residual = 2.438725205e-06, Final residual = 3.779926314e-10, No Iterations 1
DILUPBiCG:  Solving for h, Initial residual = 1.155037934e-06, Final residual = 4.261735447e-10, No Iterations 1
GAMG:  Solving for p_rgh, Initial residual = 0.0001609204533, Final residual = 1.07857339e-06, No Iterations 6
diagonal:  Solving for rho, Initial residual = 0, Final residual = 0, No Iterations 0
time step continuity errors : sum local = 5.602934799e-11, global = -2.682761056e-12, cumulative = 1.207881031e-10
GAMG:  Solving for p_rgh, Initial residual = 7.130200283e-05, Final residual = 6.626328207e-07, No Iterations 3
diagonal:  Solving for rho, Initial residual = 0, Final residual = 0, No Iterations 0
time step continuity errors : sum local = 3.441550312e-11, global = 2.001221439e-12, cumulative = 1.227893246e-10
DILUPBiCG:  Solving for epsilon, Initial residual = 9.975811073e-07, Final residual = 9.975811073e-07, No Iterations 0
DILUPBiCG:  Solving for k, Initial residual = 2.886426434e-06, Final residual = 4.905581249e-09, No Iterations 1
ExecutionTime = 39.1 s  ClockTime = 57 s

Courant Number mean: 0.000467038044 max: 0.08458852141
Time = 636.145

diagonal:  Solving for rho, Initial residual = 0, Final residual = 0, No Iterations 0
PIMPLE: iteration 1
DILUPBiCG:  Solving for Ux, Initial residual = 2.463537961e-05, Final residual = 2.88896907e-09, No Iterations 1
DILUPBiCG:  Solving for Uy, Initial residual = 6.490064815e-05, Final residual = 5.233646895e-09, No Iterations 1
DILUPBiCG:  Solving for Uz, Initial residual = 3.563254498e-06, Final residual = 4.599207475e-10, No Iterations 1
DILUPBiCG:  Solving for h, Initial residual = 1.156366426e-06, Final residual = 3.67539245e-10, No Iterations 1
GAMG:  Solving for p_rgh, Initial residual = 0.0001044217599, Final residual = 6.666967027e-07, No Iterations 7
diagonal:  Solving for rho, Initial residual = 0, Final residual = 0, No Iterations 0
time step continuity errors : sum local = 3.462633333e-11, global = 2.097089718e-12, cumulative = 1.248864143e-10
GAMG:  Solving for p_rgh, Initial residual = 7.081794738e-05, Final residual = 6.380590833e-07, No Iterations 3
diagonal:  Solving for rho, Initial residual = 0, Final residual = 0, No Iterations 0
time step continuity errors : sum local = 3.314831734e-11, global = -2.327361712e-12, cumulative = 1.225590526e-10
DILUPBiCG:  Solving for epsilon, Initial residual = 1.015442518e-06, Final residual = 6.983597911e-09, No Iterations 1
DILUPBiCG:  Solving for k, Initial residual = 2.913590586e-06, Final residual = 4.464712743e-09, No Iterations 1
ExecutionTime = 40.57 s  ClockTime = 60 s

Courant Number mean: 0.0004670466762 max: 0.08458737056
Time = 636.15

diagonal:  Solving for rho, Initial residual = 0, Final residual = 0, No Iterations 0
PIMPLE: iteration 1
DILUPBiCG:  Solving for Ux, Initial residual = 1.689264201e-05, Final residual = 2.519784483e-09, No Iterations 1
DILUPBiCG:  Solving for Uy, Initial residual = 4.980032244e-05, Final residual = 3.857701005e-09, No Iterations 1
DILUPBiCG:  Solving for Uz, Initial residual = 2.167692198e-06, Final residual = 3.727276863e-10, No Iterations 1
DILUPBiCG:  Solving for h, Initial residual = 1.163221645e-06, Final residual = 3.09155528e-10, No Iterations 1
GAMG:  Solving for p_rgh, Initial residual = 8.168000106e-05, Final residual = 7.057202533e-07, No Iterations 4
diagonal:  Solving for rho, Initial residual = 0, Final residual = 0, No Iterations 0
time step continuity errors : sum local = 3.6662983e-11, global = 1.11111254e-12, cumulative = 1.236701651e-10
GAMG:  Solving for p_rgh, Initial residual = 2.093273211e-05, Final residual = 3.759929523e-07, No Iterations 2
diagonal:  Solving for rho, Initial residual = 0, Final residual = 0, No Iterations 0
time step continuity errors : sum local = 1.953371995e-11, global = 6.298576509e-14, cumulative = 1.237331509e-10
DILUPBiCG:  Solving for epsilon, Initial residual = 1.019210388e-06, Final residual = 6.163773293e-09, No Iterations 1
DILUPBiCG:  Solving for k, Initial residual = 2.943220315e-06, Final residual = 4.087740414e-09, No Iterations 1
ExecutionTime = 42.17 s  ClockTime = 62 s

Courant Number mean: 0.0004670555649 max: 0.084586075
Time = 636.155

diagonal:  Solving for rho, Initial residual = 0, Final residual = 0, No Iterations 0
PIMPLE: iteration 1
DILUPBiCG:  Solving for Ux, Initial residual = 1.676520608e-05, Final residual = 2.527149032e-09, No Iterations 1
DILUPBiCG:  Solving for Uy, Initial residual = 5.036384259e-05, Final residual = 4.025284908e-09, No Iterations 1
DILUPBiCG:  Solving for Uz, Initial residual = 2.221539517e-06, Final residual = 3.774625187e-10, No Iterations 1
DILUPBiCG:  Solving for h, Initial residual = 1.158379117e-06, Final residual = 2.504131697e-10, No Iterations 1
GAMG:  Solving for p_rgh, Initial residual = 6.434568045e-05, Final residual = 5.48816465e-07, No Iterations 5
diagonal:  Solving for rho, Initial residual = 0, Final residual = 0, No Iterations 0
time step continuity errors : sum local = 2.851218802e-11, global = -1.561747081e-12, cumulative = 1.221714038e-10
GAMG:  Solving for p_rgh, Initial residual = 2.245127743e-05, Final residual = 4.125057093e-07, No Iterations 2
diagonal:  Solving for rho, Initial residual = 0, Final residual = 0, No Iterations 0
time step continuity errors : sum local = 2.14295798e-11, global = -5.042284528e-14, cumulative = 1.22120981e-10
DILUPBiCG:  Solving for epsilon, Initial residual = 1.024221301e-06, Final residual = 5.515784447e-09, No Iterations 1
DILUPBiCG:  Solving for k, Initial residual = 2.97309442e-06, Final residual = 3.748856516e-09, No Iterations 1
ExecutionTime = 43.61 s  ClockTime = 65 s

Courant Number mean: 0.0004670628906 max: 0.08458471333
Time = 636.16

diagonal:  Solving for rho, Initial residual = 0, Final residual = 0, No Iterations 0
PIMPLE: iteration 1
DILUPBiCG:  Solving for Ux, Initial residual = 1.675304108e-05, Final residual = 2.596469815e-09, No Iterations 1
DILUPBiCG:  Solving for Uy, Initial residual = 4.912390924e-05, Final residual = 3.806156669e-09, No Iterations 1
DILUPBiCG:  Solving for Uz, Initial residual = 2.155450726e-06, Final residual = 3.754160595e-10, No Iterations 1
DILUPBiCG:  Solving for h, Initial residual = 1.157998425e-06, Final residual = 1.963190262e-10, No Iterations 1
GAMG:  Solving for p_rgh, Initial residual = 6.035531024e-05, Final residual = 7.563813034e-07, No Iterations 3
diagonal:  Solving for rho, Initial residual = 0, Final residual = 0, No Iterations 0
time step continuity errors : sum local = 3.929350722e-11, global = 3.419710338e-12, cumulative = 1.255406913e-10
GAMG:  Solving for p_rgh, Initial residual = 1.290321686e-05, Final residual = 2.98783415e-07, No Iterations 2
diagonal:  Solving for rho, Initial residual = 0, Final residual = 0, No Iterations 0
time step continuity errors : sum local = 1.552191423e-11, global = 1.923292879e-12, cumulative = 1.274639842e-10
DILUPBiCG:  Solving for epsilon, Initial residual = 1.031350692e-06, Final residual = 5.01645656e-09, No Iterations 1
DILUPBiCG:  Solving for k, Initial residual = 3.003295882e-06, Final residual = 3.460658897e-09, No Iterations 1
ExecutionTime = 44.92 s  ClockTime = 67 s

Courant Number mean: 0.0004670705832 max: 0.08458330354
Time = 636.165

diagonal:  Solving for rho, Initial residual = 0, Final residual = 0, No Iterations 0
PIMPLE: iteration 1
DILUPBiCG:  Solving for Ux, Initial residual = 1.648714579e-05, Final residual = 2.611116101e-09, No Iterations 1
DILUPBiCG:  Solving for Uy, Initial residual = 4.89364953e-05, Final residual = 3.873131987e-09, No Iterations 1
DILUPBiCG:  Solving for Uz, Initial residual = 2.161110994e-06, Final residual = 3.772775192e-10, No Iterations 1
DILUPBiCG:  Solving for h, Initial residual = 1.159246845e-06, Final residual = 1.473380576e-10, No Iterations 1
GAMG:  Solving for p_rgh, Initial residual = 5.819564679e-05, Final residual = 5.006285353e-07, No Iterations 4
diagonal:  Solving for rho, Initial residual = 0, Final residual = 0, No Iterations 0
time step continuity errors : sum local = 2.600781918e-11, global = 1.582332024e-12, cumulative = 1.290463162e-10
GAMG:  Solving for p_rgh, Initial residual = 1.458881172e-05, Final residual = 3.083283942e-07, No Iterations 2
diagonal:  Solving for rho, Initial residual = 0, Final residual = 0, No Iterations 0
time step continuity errors : sum local = 1.601826605e-11, global = 3.67436388e-13, cumulative = 1.294137526e-10
DILUPBiCG:  Solving for epsilon, Initial residual = 1.038533565e-06, Final residual = 4.6168493e-09, No Iterations 1
DILUPBiCG:  Solving for k, Initial residual = 3.033521187e-06, Final residual = 3.215560255e-09, No Iterations 1
ExecutionTime = 46.43 s  ClockTime = 69 s

Courant Number mean: 0.0004670786841 max: 0.08458197902
Time = 636.17

diagonal:  Solving for rho, Initial residual = 0, Final residual = 0, No Iterations 0
PIMPLE: iteration 1
DILUPBiCG:  Solving for Ux, Initial residual = 1.653595515e-05, Final residual = 2.643285116e-09, No Iterations 1
DILUPBiCG:  Solving for Uy, Initial residual = 4.915380622e-05, Final residual = 3.978608491e-09, No Iterations 1
DILUPBiCG:  Solving for Uz, Initial residual = 2.143866228e-06, Final residual = 3.795530919e-10, No Iterations 1
DILUPBiCG:  Solving for h, Initial residual = 1.159765782e-06, Final residual = 1.12971774e-10, No Iterations 1
GAMG:  Solving for p_rgh, Initial residual = 5.617119881e-05, Final residual = 5.926293046e-07, No Iterations 3
diagonal:  Solving for rho, Initial residual = 0, Final residual = 0, No Iterations 0
time step continuity errors : sum local = 3.078803891e-11, global = 4.128798049e-12, cumulative = 1.335425506e-10
GAMG:  Solving for p_rgh, Initial residual = 1.16042167e-05, Final residual = 9.926387638e-07, No Iterations 1
diagonal:  Solving for rho, Initial residual = 0, Final residual = 0, No Iterations 0
time step continuity errors : sum local = 5.15694603e-11, global = 2.81246379e-12, cumulative = 1.363550144e-10
DILUPBiCG:  Solving for epsilon, Initial residual = 1.046708264e-06, Final residual = 4.290392519e-09, No Iterations 1
DILUPBiCG:  Solving for k, Initial residual = 3.128734576e-06, Final residual = 3.651145562e-09, No Iterations 1
ExecutionTime = 47.77 s  ClockTime = 71 s

Courant Number mean: 0.000467087317 max: 0.08458064245
Time = 636.175

diagonal:  Solving for rho, Initial residual = 0, Final residual = 0, No Iterations 0
PIMPLE: iteration 1
DILUPBiCG:  Solving for Ux, Initial residual = 1.648422097e-05, Final residual = 2.662051528e-09, No Iterations 1
DILUPBiCG:  Solving for Uy, Initial residual = 4.894810301e-05, Final residual = 4.021225552e-09, No Iterations 1
DILUPBiCG:  Solving for Uz, Initial residual = 2.150597554e-06, Final residual = 3.818663966e-10, No Iterations 1
DILUPBiCG:  Solving for h, Initial residual = 1.164916421e-06, Final residual = 8.75897004e-09, No Iterations 1
GAMG:  Solving for p_rgh, Initial residual = 0.001931144592, Final residual = 1.274335987e-05, No Iterations 3
diagonal:  Solving for rho, Initial residual = 0, Final residual = 0, No Iterations 0
time step continuity errors : sum local = 6.632789775e-10, global = 9.349219639e-11, cumulative = 2.298472108e-10
GAMG:  Solving for p_rgh, Initial residual = 0.0003640854485, Final residual = 7.354421257e-07, No Iterations 5
diagonal:  Solving for rho, Initial residual = 0, Final residual = 0, No Iterations 0
time step continuity errors : sum local = 3.826946514e-11, global = 2.007752988e-12, cumulative = 2.318549638e-10
DILUPBiCG:  Solving for epsilon, Initial residual = 1.071690936e-06, Final residual = 2.053621065e-08, No Iterations 1
DILUPBiCG:  Solving for k, Initial residual = 3.280958199e-06, Final residual = 2.590634305e-09, No Iterations 1
ExecutionTime = 49.33 s  ClockTime = 74 s

Courant Number mean: 0.0004670860975 max: 0.08457914293
Time = 636.18

diagonal:  Solving for rho, Initial residual = 0, Final residual = 0, No Iterations 0
PIMPLE: iteration 1
DILUPBiCG:  Solving for Ux, Initial residual = 8.116096161e-05, Final residual = 6.213505747e-09, No Iterations 1
DILUPBiCG:  Solving for Uy, Initial residual = 0.0001903223619, Final residual = 1.19804083e-08, No Iterations 1
DILUPBiCG:  Solving for Uz, Initial residual = 5.123837268e-06, Final residual = 5.25098173e-10, No Iterations 1
DILUPBiCG:  Solving for h, Initial residual = 1.165108216e-06, Final residual = 6.802684212e-10, No Iterations 1
GAMG:  Solving for p_rgh, Initial residual = 0.005219807402, Final residual = 2.655005941e-05, No Iterations 3
diagonal:  Solving for rho, Initial residual = 0, Final residual = 0, No Iterations 0
time step continuity errors : sum local = 1.383146458e-09, global = 2.20485081e-10, cumulative = 4.523400448e-10
GAMG:  Solving for p_rgh, Initial residual = 0.0003217706384, Final residual = 6.407637492e-07, No Iterations 7
diagonal:  Solving for rho, Initial residual = 0, Final residual = 0, No Iterations 0
time step continuity errors : sum local = 3.344993075e-11, global = -4.586916917e-13, cumulative = 4.518813531e-10
DILUPBiCG:  Solving for epsilon, Initial residual = 1.07025668e-06, Final residual = 3.884546692e-09, No Iterations 1
DILUPBiCG:  Solving for k, Initial residual = 3.110970716e-06, Final residual = 1.004302896e-08, No Iterations 1
ExecutionTime = 50.82 s  ClockTime = 76 s

Courant Number mean: 0.0004670278427 max: 0.08457785901
Time = 636.185

diagonal:  Solving for rho, Initial residual = 0, Final residual = 0, No Iterations 0
PIMPLE: iteration 1
DILUPBiCG:  Solving for Ux, Initial residual = 6.785567477e-05, Final residual = 4.995110959e-09, No Iterations 1
DILUPBiCG:  Solving for Uy, Initial residual = 0.0003053256979, Final residual = 1.538915677e-08, No Iterations 1
DILUPBiCG:  Solving for Uz, Initial residual = 9.763445858e-06, Final residual = 8.096891806e-10, No Iterations 1
DILUPBiCG:  Solving for h, Initial residual = 1.158337078e-06, Final residual = 3.445446019e-09, No Iterations 1
GAMG:  Solving for p_rgh, Initial residual = 0.004874604651, Final residual = 2.338292524e-05, No Iterations 3
diagonal:  Solving for rho, Initial residual = 0, Final residual = 0, No Iterations 0
time step continuity errors : sum local = 1.218989681e-09, global = -2.0135774e-10, cumulative = 2.505236131e-10
GAMG:  Solving for p_rgh, Initial residual = 0.0004481419169, Final residual = 8.492827417e-07, No Iterations 6
diagonal:  Solving for rho, Initial residual = 0, Final residual = 0, No Iterations 0
time step continuity errors : sum local = 4.417889195e-11, global = -2.992827883e-12, cumulative = 2.475307852e-10
DILUPBiCG:  Solving for epsilon, Initial residual = 1.010158826e-06, Final residual = 8.447072032e-09, No Iterations 1
DILUPBiCG:  Solving for k, Initial residual = 2.958762177e-06, Final residual = 5.91273514e-09, No Iterations 1
ExecutionTime = 52.36 s  ClockTime = 78 s

Courant Number mean: 0.0004670021779 max: 0.08457650323
Time = 636.19

diagonal:  Solving for rho, Initial residual = 0, Final residual = 0, No Iterations 0
PIMPLE: iteration 1
DILUPBiCG:  Solving for Ux, Initial residual = 7.774024086e-05, Final residual = 5.58116593e-09, No Iterations 1
DILUPBiCG:  Solving for Uy, Initial residual = 0.0001316813642, Final residual = 6.915271632e-09, No Iterations 1
DILUPBiCG:  Solving for Uz, Initial residual = 3.861460985e-06, Final residual = 3.89231955e-10, No Iterations 1
DILUPBiCG:  Solving for h, Initial residual = 1.224739805e-06, Final residual = 6.472737603e-10, No Iterations 1
GAMG:  Solving for p_rgh, Initial residual = 0.001992035024, Final residual = 9.078207976e-06, No Iterations 5
diagonal:  Solving for rho, Initial residual = 0, Final residual = 0, No Iterations 0
time step continuity errors : sum local = 4.716475019e-10, global = 3.921915607e-11, cumulative = 2.867499413e-10
GAMG:  Solving for p_rgh, Initial residual = 0.0003178237864, Final residual = 5.023788069e-07, No Iterations 6
diagonal:  Solving for rho, Initial residual = 0, Final residual = 0, No Iterations 0
time step continuity errors : sum local = 2.611934012e-11, global = 4.939225525e-13, cumulative = 2.872438639e-10
DILUPBiCG:  Solving for epsilon, Initial residual = 1.002251117e-06, Final residual = 7.186249555e-09, No Iterations 1
DILUPBiCG:  Solving for k, Initial residual = 2.916073539e-06, Final residual = 7.031694078e-09, No Iterations 1
ExecutionTime = 53.59 s  ClockTime = 80 s

Courant Number mean: 0.0004670249339 max: 0.08457528689
Time = 636.195

diagonal:  Solving for rho, Initial residual = 0, Final residual = 0, No Iterations 0
PIMPLE: iteration 1
DILUPBiCG:  Solving for Ux, Initial residual = 3.508862306e-05, Final residual = 3.804383834e-09, No Iterations 1
DILUPBiCG:  Solving for Uy, Initial residual = 9.284754586e-05, Final residual = 9.160797107e-09, No Iterations 1
DILUPBiCG:  Solving for Uz, Initial residual = 5.1120389e-06, Final residual = 5.135269467e-10, No Iterations 1
DILUPBiCG:  Solving for h, Initial residual = 1.205901226e-06, Final residual = 6.059842447e-10, No Iterations 1
GAMG:  Solving for p_rgh, Initial residual = 0.0003577939739, Final residual = 3.185008082e-06, No Iterations 5
diagonal:  Solving for rho, Initial residual = 0, Final residual = 0, No Iterations 0
time step continuity errors : sum local = 1.655706021e-10, global = -7.203607535e-12, cumulative = 2.800402563e-10
GAMG:  Solving for p_rgh, Initial residual = 0.0001471103769, Final residual = 9.380166526e-07, No Iterations 4
diagonal:  Solving for rho, Initial residual = 0, Final residual = 0, No Iterations 0
time step continuity errors : sum local = 4.873044467e-11, global = 1.098889845e-12, cumulative = 2.811391462e-10
DILUPBiCG:  Solving for epsilon, Initial residual = 9.919129487e-07, Final residual = 9.919129487e-07, No Iterations 0
DILUPBiCG:  Solving for k, Initial residual = 2.893069038e-06, Final residual = 6.594144653e-09, No Iterations 1
ExecutionTime = 54.97 s  ClockTime = 82 s

Courant Number mean: 0.0004670306758 max: 0.08457367192
Time = 636.2

diagonal:  Solving for rho, Initial residual = 0, Final residual = 0, No Iterations 0
PIMPLE: iteration 1
DILUPBiCG:  Solving for Ux, Initial residual = 1.891918256e-05, Final residual = 2.526441218e-09, No Iterations 1
DILUPBiCG:  Solving for Uy, Initial residual = 5.126614556e-05, Final residual = 3.826355698e-09, No Iterations 1
DILUPBiCG:  Solving for Uz, Initial residual = 2.423360708e-06, Final residual = 3.751345183e-10, No Iterations 1
DILUPBiCG:  Solving for h, Initial residual = 1.155258739e-06, Final residual = 5.31230383e-10, No Iterations 1
GAMG:  Solving for p_rgh, Initial residual = 0.0001608814346, Final residual = 1.053903701e-06, No Iterations 6
diagonal:  Solving for rho, Initial residual = 0, Final residual = 0, No Iterations 0
time step continuity errors : sum local = 5.47499082e-11, global = -2.557514985e-12, cumulative = 2.785816312e-10
GAMG:  Solving for p_rgh, Initial residual = 7.111060138e-05, Final residual = 6.5036921e-07, No Iterations 3
diagonal:  Solving for rho, Initial residual = 0, Final residual = 0, No Iterations 0
time step continuity errors : sum local = 3.377982844e-11, global = 2.005870492e-12, cumulative = 2.805875017e-10
DILUPBiCG:  Solving for epsilon, Initial residual = 1.002170404e-06, Final residual = 6.656606308e-09, No Iterations 1
DILUPBiCG:  Solving for k, Initial residual = 2.879973416e-06, Final residual = 5.695288401e-09, No Iterations 1
ExecutionTime = 56.31 s  ClockTime = 84 s

Courant Number mean: 0.0004670312685 max: 0.08457211421
Time = 636.205

diagonal:  Solving for rho, Initial residual = 0, Final residual = 0, No Iterations 0
PIMPLE: iteration 1
DILUPBiCG:  Solving for Ux, Initial residual = 2.474750179e-05, Final residual = 2.867109032e-09, No Iterations 1
DILUPBiCG:  Solving for Uy, Initial residual = 6.49835549e-05, Final residual = 5.207233811e-09, No Iterations 1
DILUPBiCG:  Solving for Uz, Initial residual = 3.543981541e-06, Final residual = 4.559017904e-10, No Iterations 1
DILUPBiCG:  Solving for h, Initial residual = 1.156378756e-06, Final residual = 4.662103189e-10, No Iterations 1
GAMG:  Solving for p_rgh, Initial residual = 0.0001058025342, Final residual = 6.585499987e-07, No Iterations 7
diagonal:  Solving for rho, Initial residual = 0, Final residual = 0, No Iterations 0
time step continuity errors : sum local = 3.420446781e-11, global = 2.08525493e-12, cumulative = 2.826727566e-10
GAMG:  Solving for p_rgh, Initial residual = 7.133406634e-05, Final residual = 6.482887832e-07, No Iterations 3
diagonal:  Solving for rho, Initial residual = 0, Final residual = 0, No Iterations 0
time step continuity errors : sum local = 3.36809406e-11, global = -2.408449505e-12, cumulative = 2.802643071e-10
DILUPBiCG:  Solving for epsilon, Initial residual = 9.989048613e-07, Final residual = 9.989048613e-07, No Iterations 0
DILUPBiCG:  Solving for k, Initial residual = 2.887921919e-06, Final residual = 5.055999784e-09, No Iterations 1
ExecutionTime = 57.51 s  ClockTime = 85 s

Courant Number mean: 0.000467039914 max: 0.08457081438
Time = 636.21

diagonal:  Solving for rho, Initial residual = 0, Final residual = 0, No Iterations 0
PIMPLE: iteration 1
DILUPBiCG:  Solving for Ux, Initial residual = 1.700947501e-05, Final residual = 2.517644528e-09, No Iterations 1
DILUPBiCG:  Solving for Uy, Initial residual = 4.985829049e-05, Final residual = 3.82082295e-09, No Iterations 1
DILUPBiCG:  Solving for Uz, Initial residual = 2.16154073e-06, Final residual = 3.700609229e-10, No Iterations 1
DILUPBiCG:  Solving for h, Initial residual = 1.163078769e-06, Final residual = 4.055386613e-10, No Iterations 1
GAMG:  Solving for p_rgh, Initial residual = 8.346450201e-05, Final residual = 7.309644691e-07, No Iterations 4
diagonal:  Solving for rho, Initial residual = 0, Final residual = 0, No Iterations 0
time step continuity errors : sum local = 3.797574257e-11, global = 1.299790869e-12, cumulative = 2.81564098e-10
GAMG:  Solving for p_rgh, Initial residual = 2.134250695e-05, Final residual = 3.807816277e-07, No Iterations 2
diagonal:  Solving for rho, Initial residual = 0, Final residual = 0, No Iterations 0
time step continuity errors : sum local = 1.978313359e-11, global = -2.908592243e-14, cumulative = 2.81535012e-10
DILUPBiCG:  Solving for epsilon, Initial residual = 1.020197949e-06, Final residual = 6.938155034e-09, No Iterations 1
DILUPBiCG:  Solving for k, Initial residual = 2.920459106e-06, Final residual = 4.504790485e-09, No Iterations 1
ExecutionTime = 58.71 s  ClockTime = 86 s

Courant Number mean: 0.0004670487161 max: 0.08456949486
Time = 636.215

diagonal:  Solving for rho, Initial residual = 0, Final residual = 0, No Iterations 0
PIMPLE: iteration 1
DILUPBiCG:  Solving for Ux, Initial residual = 1.685183257e-05, Final residual = 2.519029476e-09, No Iterations 1
DILUPBiCG:  Solving for Uy, Initial residual = 5.035122463e-05, Final residual = 3.975408243e-09, No Iterations 1
DILUPBiCG:  Solving for Uz, Initial residual = 2.214296594e-06, Final residual = 3.745010014e-10, No Iterations 1
DILUPBiCG:  Solving for h, Initial residual = 1.158175816e-06, Final residual = 3.372003988e-10, No Iterations 1
GAMG:  Solving for p_rgh, Initial residual = 6.607994545e-05, Final residual = 5.439102816e-07, No Iterations 5
diagonal:  Solving for rho, Initial residual = 0, Final residual = 0, No Iterations 0
time step continuity errors : sum local = 2.825820216e-11, global = -1.627384425e-12, cumulative = 2.799076276e-10
GAMG:  Solving for p_rgh, Initial residual = 2.271789607e-05, Final residual = 4.182403023e-07, No Iterations 2
diagonal:  Solving for rho, Initial residual = 0, Final residual = 0, No Iterations 0
time step continuity errors : sum local = 2.172814067e-11, global = -1.062418953e-13, cumulative = 2.798013857e-10
DILUPBiCG:  Solving for epsilon, Initial residual = 1.023826462e-06, Final residual = 8.422712522e-09, No Iterations 1
DILUPBiCG:  Solving for k, Initial residual = 2.949164157e-06, Final residual = 4.045086994e-09, No Iterations 1
ExecutionTime = 60.04 s  ClockTime = 88 s

Courant Number mean: 0.0004670560279 max: 0.08456796719
Time = 636.22

diagonal:  Solving for rho, Initial residual = 0, Final residual = 0, No Iterations 0
PIMPLE: iteration 1
DILUPBiCG:  Solving for Ux, Initial residual = 1.683706246e-05, Final residual = 2.5882639e-09, No Iterations 1
DILUPBiCG:  Solving for Uy, Initial residual = 4.914312809e-05, Final residual = 3.762948552e-09, No Iterations 1
DILUPBiCG:  Solving for Uz, Initial residual = 2.149423872e-06, Final residual = 3.720642597e-10, No Iterations 1
DILUPBiCG:  Solving for h, Initial residual = 1.157836413e-06, Final residual = 2.732040184e-10, No Iterations 1
GAMG:  Solving for p_rgh, Initial residual = 6.123954549e-05, Final residual = 7.521056515e-07, No Iterations 3
diagonal:  Solving for rho, Initial residual = 0, Final residual = 0, No Iterations 0
time step continuity errors : sum local = 3.907254359e-11, global = 3.4230565e-12, cumulative = 2.832244422e-10
GAMG:  Solving for p_rgh, Initial residual = 1.325429475e-05, Final residual = 3.015614453e-07, No Iterations 2
diagonal:  Solving for rho, Initial residual = 0, Final residual = 0, No Iterations 0
time step continuity errors : sum local = 1.566668151e-11, global = 2.034481214e-12, cumulative = 2.852589234e-10
DILUPBiCG:  Solving for epsilon, Initial residual = 1.027742206e-06, Final residual = 1.066811963e-08, No Iterations 1
DILUPBiCG:  Solving for k, Initial residual = 2.978471819e-06, Final residual = 3.669662427e-09, No Iterations 1
ExecutionTime = 61.35 s  ClockTime = 90 s

Courant Number mean: 0.0004670637044 max: 0.08456654748
Time = 636.225

diagonal:  Solving for rho, Initial residual = 0, Final residual = 0, No Iterations 0
PIMPLE: iteration 1
DILUPBiCG:  Solving for Ux, Initial residual = 1.656495231e-05, Final residual = 2.602218767e-09, No Iterations 1
DILUPBiCG:  Solving for Uy, Initial residual = 4.894822357e-05, Final residual = 3.833388595e-09, No Iterations 1
DILUPBiCG:  Solving for Uz, Initial residual = 2.157056234e-06, Final residual = 3.737247092e-10, No Iterations 1
DILUPBiCG:  Solving for h, Initial residual = 1.159083477e-06, Final residual = 2.144937622e-10, No Iterations 1
GAMG:  Solving for p_rgh, Initial residual = 5.877354622e-05, Final residual = 4.845591868e-07, No Iterations 4
diagonal:  Solving for rho, Initial residual = 0, Final residual = 0, No Iterations 0
time step continuity errors : sum local = 2.517373388e-11, global = 1.44121153e-12, cumulative = 2.86700135e-10
GAMG:  Solving for p_rgh, Initial residual = 1.460219658e-05, Final residual = 3.106936841e-07, No Iterations 2
diagonal:  Solving for rho, Initial residual = 0, Final residual = 0, No Iterations 0
time step continuity errors : sum local = 1.614156746e-11, global = 2.697990028e-13, cumulative = 2.86969934e-10
DILUPBiCG:  Solving for epsilon, Initial residual = 1.031732541e-06, Final residual = 1.438375137e-08, No Iterations 1
DILUPBiCG:  Solving for k, Initial residual = 3.008375996e-06, Final residual = 3.359338414e-09, No Iterations 1
ExecutionTime = 62.78 s  ClockTime = 92 s

Courant Number mean: 0.000467071791 max: 0.08456507146
Time = 636.23

diagonal:  Solving for rho, Initial residual = 0, Final residual = 0, No Iterations 0
PIMPLE: iteration 1
DILUPBiCG:  Solving for Ux, Initial residual = 1.658576082e-05, Final residual = 2.634603222e-09, No Iterations 1
DILUPBiCG:  Solving for Uy, Initial residual = 4.916306639e-05, Final residual = 3.937592519e-09, No Iterations 1
DILUPBiCG:  Solving for Uz, Initial residual = 2.14039244e-06, Final residual = 3.758707376e-10, No Iterations 1
DILUPBiCG:  Solving for h, Initial residual = 1.159600913e-06, Final residual = 1.615660755e-10, No Iterations 1
GAMG:  Solving for p_rgh, Initial residual = 5.738560842e-05, Final residual = 5.910545689e-07, No Iterations 3
diagonal:  Solving for rho, Initial residual = 0, Final residual = 0, No Iterations 0
time step continuity errors : sum local = 3.070705871e-11, global = 3.951960411e-12, cumulative = 2.909218944e-10
GAMG:  Solving for p_rgh, Initial residual = 1.158977426e-05, Final residual = 2.766065483e-07, No Iterations 2
diagonal:  Solving for rho, Initial residual = 0, Final residual = 0, No Iterations 0
time step continuity errors : sum local = 1.437062148e-11, global = 1.517197535e-12, cumulative = 2.924390919e-10
DILUPBiCG:  Solving for epsilon, Initial residual = 1.038277809e-06, Final residual = 2.203985735e-08, No Iterations 1
DILUPBiCG:  Solving for k, Initial residual = 3.102481304e-06, Final residual = 3.930209947e-09, No Iterations 1
ExecutionTime = 64.24 s  ClockTime = 94 s

Courant Number mean: 0.0004670802901 max: 0.08456365904
Time = 636.235

diagonal:  Solving for rho, Initial residual = 0, Final residual = 0, No Iterations 0
PIMPLE: iteration 1
DILUPBiCG:  Solving for Ux, Initial residual = 1.651880964e-05, Final residual = 2.659413175e-09, No Iterations 1
DILUPBiCG:  Solving for Uy, Initial residual = 4.895608248e-05, Final residual = 3.986890173e-09, No Iterations 1
DILUPBiCG:  Solving for Uz, Initial residual = 2.146507255e-06, Final residual = 3.778422792e-10, No Iterations 1
DILUPBiCG:  Solving for h, Initial residual = 1.164658143e-06, Final residual = 3.235248222e-08, No Iterations 1
GAMG:  Solving for p_rgh, Initial residual = 0.001935382896, Final residual = 1.526562403e-05, No Iterations 3
diagonal:  Solving for rho, Initial residual = 0, Final residual = 0, No Iterations 0
time step continuity errors : sum local = 7.94583937e-10, global = 3.152211136e-10, cumulative = 6.076602055e-10
GAMG:  Solving for p_rgh, Initial residual = 0.0003654268034, Final residual = 6.892228596e-07, No Iterations 6
diagonal:  Solving for rho, Initial residual = 0, Final residual = 0, No Iterations 0
time step continuity errors : sum local = 3.586554561e-11, global = 2.198391554e-12, cumulative = 6.098585971e-10
DILUPBiCG:  Solving for epsilon, Initial residual = 1.065880323e-06, Final residual = 2.867805558e-09, No Iterations 1
DILUPBiCG:  Solving for k, Initial residual = 3.210543841e-06, Final residual = 2.750977385e-09, No Iterations 1
ExecutionTime = 65.78 s  ClockTime = 96 s

Courant Number mean: 0.0004670815207 max: 0.08456244609
Time = 636.24

diagonal:  Solving for rho, Initial residual = 0, Final residual = 0, No Iterations 0
PIMPLE: iteration 1
DILUPBiCG:  Solving for Ux, Initial residual = 8.338314245e-05, Final residual = 6.259478018e-09, No Iterations 1
DILUPBiCG:  Solving for Uy, Initial residual = 0.0001946697809, Final residual = 1.240936301e-08, No Iterations 1
DILUPBiCG:  Solving for Uz, Initial residual = 5.292320931e-06, Final residual = 5.392132625e-10, No Iterations 1
DILUPBiCG:  Solving for h, Initial residual = 1.162419616e-06, Final residual = 6.964664707e-10, No Iterations 1
GAMG:  Solving for p_rgh, Initial residual = 0.005265380704, Final residual = 3.589165621e-05, No Iterations 3
diagonal:  Solving for rho, Initial residual = 0, Final residual = 0, No Iterations 0
time step continuity errors : sum local = 1.869921121e-09, global = -1.453882328e-10, cumulative = 4.644703643e-10
GAMG:  Solving for p_rgh, Initial residual = 0.0003365430442, Final residual = 6.479119681e-07, No Iterations 7
diagonal:  Solving for rho, Initial residual = 0, Final residual = 0, No Iterations 0
time step continuity errors : sum local = 3.38232918e-11, global = -1.516521873e-12, cumulative = 4.629538424e-10
DILUPBiCG:  Solving for epsilon, Initial residual = 1.07719582e-06, Final residual = 1.880700946e-09, No Iterations 1
DILUPBiCG:  Solving for k, Initial residual = 3.112359956e-06, Final residual = 6.5403653e-09, No Iterations 1
ExecutionTime = 67.1 s  ClockTime = 98 s

Courant Number mean: 0.0004670224993 max: 0.08456084588
Time = 636.245

diagonal:  Solving for rho, Initial residual = 0, Final residual = 0, No Iterations 0
PIMPLE: iteration 1
DILUPBiCG:  Solving for Ux, Initial residual = 7.303396925e-05, Final residual = 5.080080644e-09, No Iterations 1
DILUPBiCG:  Solving for Uy, Initial residual = 0.0003204941296, Final residual = 1.716122199e-08, No Iterations 1
DILUPBiCG:  Solving for Uz, Initial residual = 9.938638671e-06, Final residual = 8.174938309e-10, No Iterations 1
DILUPBiCG:  Solving for h, Initial residual = 1.157623871e-06, Final residual = 3.833794949e-09, No Iterations 1
GAMG:  Solving for p_rgh, Initial residual = 0.004898681248, Final residual = 2.466757343e-05, No Iterations 3
diagonal:  Solving for rho, Initial residual = 0, Final residual = 0, No Iterations 0
time step continuity errors : sum local = 1.286263521e-09, global = -6.03831626e-11, cumulative = 4.025706798e-10
GAMG:  Solving for p_rgh, Initial residual = 0.0004559102104, Final residual = 6.184423046e-07, No Iterations 7
diagonal:  Solving for rho, Initial residual = 0, Final residual = 0, No Iterations 0
time step continuity errors : sum local = 3.216911823e-11, global = -1.354104897e-12, cumulative = 4.012165749e-10
DILUPBiCG:  Solving for epsilon, Initial residual = 1.016665217e-06, Final residual = 2.381315877e-09, No Iterations 1
DILUPBiCG:  Solving for k, Initial residual = 2.967130581e-06, Final residual = 7.199957432e-09, No Iterations 1
ExecutionTime = 68.53 s  ClockTime = 100 s

Courant Number mean: 0.0004669946187 max: 0.08455929265
Time = 636.25

diagonal:  Solving for rho, Initial residual = 0, Final residual = 0, No Iterations 0
PIMPLE: iteration 1
DILUPBiCG:  Solving for Ux, Initial residual = 7.715317363e-05, Final residual = 5.520698985e-09, No Iterations 1
DILUPBiCG:  Solving for Uy, Initial residual = 0.0001309138866, Final residual = 6.685109557e-09, No Iterations 1
DILUPBiCG:  Solving for Uz, Initial residual = 3.712482742e-06, Final residual = 3.762422638e-10, No Iterations 1
DILUPBiCG:  Solving for h, Initial residual = 1.227757297e-06, Final residual = 7.616083902e-10, No Iterations 1
GAMG:  Solving for p_rgh, Initial residual = 0.001988718255, Final residual = 1.147777699e-05, No Iterations 5
diagonal:  Solving for rho, Initial residual = 0, Final residual = 0, No Iterations 0
time step continuity errors : sum local = 5.963103567e-10, global = 5.404680076e-11, cumulative = 4.552633757e-10
GAMG:  Solving for p_rgh, Initial residual = 0.0003378885624, Final residual = 8.208586956e-07, No Iterations 6
diagonal:  Solving for rho, Initial residual = 0, Final residual = 0, No Iterations 0
time step continuity errors : sum local = 4.268090954e-11, global = 1.395089917e-12, cumulative = 4.566584656e-10
DILUPBiCG:  Solving for epsilon, Initial residual = 1.009527431e-06, Final residual = 2.255071577e-09, No Iterations 1
DILUPBiCG:  Solving for k, Initial residual = 2.92332876e-06, Final residual = 9.57684573e-09, No Iterations 1
ExecutionTime = 69.88 s  ClockTime = 102 s

Courant Number mean: 0.0004670188341 max: 0.08455809692
Time = 636.255

diagonal:  Solving for rho, Initial residual = 0, Final residual = 0, No Iterations 0
PIMPLE: iteration 1
DILUPBiCG:  Solving for Ux, Initial residual = 3.651379229e-05, Final residual = 4.028581771e-09, No Iterations 1
DILUPBiCG:  Solving for Uy, Initial residual = 9.753814672e-05, Final residual = 9.699296834e-09, No Iterations 1
DILUPBiCG:  Solving for Uz, Initial residual = 5.374958768e-06, Final residual = 5.270807733e-10, No Iterations 1
DILUPBiCG:  Solving for h, Initial residual = 1.208159226e-06, Final residual = 7.35743693e-10, No Iterations 1
GAMG:  Solving for p_rgh, Initial residual = 0.0003646875086, Final residual = 2.654322078e-06, No Iterations 5
diagonal:  Solving for rho, Initial residual = 0, Final residual = 0, No Iterations 0
time step continuity errors : sum local = 1.379955057e-10, global = -6.444812357e-12, cumulative = 4.502136533e-10
GAMG:  Solving for p_rgh, Initial residual = 0.0001541462866, Final residual = 9.421322613e-07, No Iterations 4
diagonal:  Solving for rho, Initial residual = 0, Final residual = 0, No Iterations 0
[...]
DILUPBiCG:  Solving for epsilon, Initial residual = 9.953744095e-07, Final residual = 9.953744095e-07, No Iterations 0
DILUPBiCG:  Solving for k, Initial residual = 1.98568912e-06, Final residual = 1.082554304e-09, No Iterations 1
ExecutionTime = 910.79 s  ClockTime = 9803 s

Courant Number mean: 0.0004669173572 max: 0.08452632968
Time = 639.515

diagonal:  Solving for rho, Initial residual = 0, Final residual = 0, No Iterations 0
PIMPLE: iteration 1
DILUPBiCG:  Solving for Ux, Initial residual = 2.288367327e-05, Final residual = 1.835846181e-09, No Iterations 1
DILUPBiCG:  Solving for Uy, Initial residual = 6.050047898e-05, Final residual = 4.458427622e-09, No Iterations 1
DILUPBiCG:  Solving for Uz, Initial residual = 3.253912826e-06, Final residual = 3.154306254e-10, No Iterations 1
DILUPBiCG:  Solving for h, Initial residual = 1.193565052e-06, Final residual = 1.446976066e-10, No Iterations 1
GAMG:  Solving for p_rgh, Initial residual = 0.0003065159582, Final residual = 2.901804102e-06, No Iterations 6
diagonal:  Solving for rho, Initial residual = 0, Final residual = 0, No Iterations 0
time step continuity errors : sum local = 1.507681218e-10, global = 7.810393483e-12, cumulative = 3.96786219e-09
GAMG:  Solving for p_rgh, Initial residual = 0.00015247178, Final residual = 9.251817341e-07, No Iterations 4
diagonal:  Solving for rho, Initial residual = 0, Final residual = 0, No Iterations 0
time step continuity errors : sum local = 4.809787994e-11, global = -6.667855188e-13, cumulative = 3.967195404e-09
DILUPBiCG:  Solving for epsilon, Initial residual = 1.004966945e-06, Final residual = 5.408557188e-10, No Iterations 1
DILUPBiCG:  Solving for k, Initial residual = 1.981574555e-06, Final residual = 1.060188091e-09, No Iterations 1
ExecutionTime = 912.05 s  ClockTime = 9804 s

Courant Number mean: 0.000466935763 max: 0.08452596285
Time = 639.52

diagonal:  Solving for rho, Initial residual = 0, Final residual = 0, No Iterations 0
PIMPLE: iteration 1
DILUPBiCG:  Solving for Ux, Initial residual = 2.76409821e-05, Final residual = 2.032808601e-09, No Iterations 1
DILUPBiCG:  Solving for Uy, Initial residual = 8.060108725e-05, Final residual = 6.606404366e-09, No Iterations 1
DILUPBiCG:  Solving for Uz, Initial residual = 4.141265487e-06, Final residual = 3.650384651e-10, No Iterations 1
DILUPBiCG:  Solving for h, Initial residual = 1.164809268e-06, Final residual = 1.068439298e-10, No Iterations 1
GAMG:  Solving for p_rgh, Initial residual = 0.000148140528, Final residual = 9.672262672e-07, No Iterations 7
diagonal:  Solving for rho, Initial residual = 0, Final residual = 0, No Iterations 0
time step continuity errors : sum local = 5.028283404e-11, global = -3.5976349e-12, cumulative = 3.963597769e-09
GAMG:  Solving for p_rgh, Initial residual = 0.0001127447411, Final residual = 5.955454998e-07, No Iterations 4
diagonal:  Solving for rho, Initial residual = 0, Final residual = 0, No Iterations 0
time step continuity errors : sum local = 3.094444891e-11, global = 1.279242039e-12, cumulative = 3.964877012e-09
DILUPBiCG:  Solving for epsilon, Initial residual = 9.994687363e-07, Final residual = 9.994687363e-07, No Iterations 0
DILUPBiCG:  Solving for k, Initial residual = 1.999339521e-06, Final residual = 1.08070792e-09, No Iterations 1
ExecutionTime = 913.33 s  ClockTime = 9806 s

Courant Number mean: 0.0004669400069 max: 0.08452530635
Time = 639.525

diagonal:  Solving for rho, Initial residual = 0, Final residual = 0, No Iterations 0
PIMPLE: iteration 1
DILUPBiCG:  Solving for Ux, Initial residual = 1.948355924e-05, Final residual = 1.906376818e-09, No Iterations 1
DILUPBiCG:  Solving for Uy, Initial residual = 5.399767685e-05, Final residual = 3.555612563e-09, No Iterations 1
DILUPBiCG:  Solving for Uz, Initial residual = 2.590981432e-06, Final residual = 2.90391263e-10, No Iterations 1
DILUPBiCG:  Solving for h, Initial residual = 1.15176778e-06, Final residual = 1.387335663e-10, No Iterations 1
GAMG:  Solving for p_rgh, Initial residual = 9.375595282e-05, Final residual = 6.000880646e-07, No Iterations 4
diagonal:  Solving for rho, Initial residual = 0, Final residual = 0, No Iterations 0
time step continuity errors : sum local = 3.118021554e-11, global = 1.244370832e-12, cumulative = 3.966121382e-09
GAMG:  Solving for p_rgh, Initial residual = 1.633477001e-05, Final residual = 3.279471916e-07, No Iterations 2
diagonal:  Solving for rho, Initial residual = 0, Final residual = 0, No Iterations 0
time step continuity errors : sum local = 1.704055514e-11, global = 7.759593786e-15, cumulative = 3.966129142e-09
DILUPBiCG:  Solving for epsilon, Initial residual = 1.019734329e-06, Final residual = 5.47674477e-10, No Iterations 1
DILUPBiCG:  Solving for k, Initial residual = 2.030987169e-06, Final residual = 1.120459091e-09, No Iterations 1
ExecutionTime = 914.47 s  ClockTime = 9807 s

Courant Number mean: 0.0004669455847 max: 0.08452455991
Time = 639.53

diagonal:  Solving for rho, Initial residual = 0, Final residual = 0, No Iterations 0
PIMPLE: iteration 1
DILUPBiCG:  Solving for Ux, Initial residual = 1.815338223e-05, Final residual = 1.88081786e-09, No Iterations 1
DILUPBiCG:  Solving for Uy, Initial residual = 5.234846201e-05, Final residual = 3.44352096e-09, No Iterations 1
DILUPBiCG:  Solving for Uz, Initial residual = 2.469036619e-06, Final residual = 2.863986037e-10, No Iterations 1
DILUPBiCG:  Solving for h, Initial residual = 1.15507998e-06, Final residual = 1.726991396e-10, No Iterations 1
GAMG:  Solving for p_rgh, Initial residual = 6.433273812e-05, Final residual = 7.732532047e-07, No Iterations 5
diagonal:  Solving for rho, Initial residual = 0, Final residual = 0, No Iterations 0
time step continuity errors : sum local = 4.017893176e-11, global = 2.545812623e-12, cumulative = 3.968674955e-09
GAMG:  Solving for p_rgh, Initial residual = 3.818052613e-05, Final residual = 6.719213803e-07, No Iterations 2
diagonal:  Solving for rho, Initial residual = 0, Final residual = 0, No Iterations 0
time step continuity errors : sum local = 3.491804402e-11, global = -2.435589787e-12, cumulative = 3.966239365e-09
DILUPBiCG:  Solving for epsilon, Initial residual = 1.019041758e-06, Final residual = 5.509886112e-10, No Iterations 1
DILUPBiCG:  Solving for k, Initial residual = 2.057176136e-06, Final residual = 1.16995328e-09, No Iterations 1
ExecutionTime = 915.68 s  ClockTime = 9808 s

Courant Number mean: 0.0004669545616 max: 0.0845241777
Time = 639.535

diagonal:  Solving for rho, Initial residual = 0, Final residual = 0, No Iterations 0
PIMPLE: iteration 1
DILUPBiCG:  Solving for Ux, Initial residual = 1.623227249e-05, Final residual = 1.703930576e-09, No Iterations 1
DILUPBiCG:  Solving for Uy, Initial residual = 4.996270004e-05, Final residual = 3.21725021e-09, No Iterations 1
DILUPBiCG:  Solving for Uz, Initial residual = 2.149549383e-06, Final residual = 2.743462125e-10, No Iterations 1
DILUPBiCG:  Solving for h, Initial residual = 1.157239128e-06, Final residual = 2.028085497e-10, No Iterations 1
GAMG:  Solving for p_rgh, Initial residual = 6.200844413e-05, Final residual = 4.920891175e-07, No Iterations 4
diagonal:  Solving for rho, Initial residual = 0, Final residual = 0, No Iterations 0
time step continuity errors : sum local = 2.557245391e-11, global = -1.098024953e-12, cumulative = 3.96514134e-09
GAMG:  Solving for p_rgh, Initial residual = 1.208245311e-05, Final residual = 8.497710953e-07, No Iterations 1
diagonal:  Solving for rho, Initial residual = 0, Final residual = 0, No Iterations 0
time step continuity errors : sum local = 4.415968195e-11, global = -2.36316776e-12, cumulative = 3.962778172e-09
DILUPBiCG:  Solving for epsilon, Initial residual = 1.018610357e-06, Final residual = 5.549908669e-10, No Iterations 1
DILUPBiCG:  Solving for k, Initial residual = 2.161852077e-06, Final residual = 7.753493593e-10, No Iterations 1
ExecutionTime = 916.84 s  ClockTime = 9809 s

Courant Number mean: 0.0004669646092 max: 0.08452359661
Time = 639.54

diagonal:  Solving for rho, Initial residual = 0, Final residual = 0, No Iterations 0
PIMPLE: iteration 1
DILUPBiCG:  Solving for Ux, Initial residual = 1.614352532e-05, Final residual = 1.779693349e-09, No Iterations 1
DILUPBiCG:  Solving for Uy, Initial residual = 4.943832331e-05, Final residual = 3.215276178e-09, No Iterations 1
DILUPBiCG:  Solving for Uz, Initial residual = 2.10482311e-06, Final residual = 2.747152691e-10, No Iterations 1
DILUPBiCG:  Solving for h, Initial residual = 1.160929565e-06, Final residual = 2.224235895e-09, No Iterations 1
GAMG:  Solving for p_rgh, Initial residual = 0.001940856896, Final residual = 1.330679856e-05, No Iterations 3
diagonal:  Solving for rho, Initial residual = 0, Final residual = 0, No Iterations 0
time step continuity errors : sum local = 6.928028118e-10, global = 1.003573004e-10, cumulative = 4.063135472e-09
GAMG:  Solving for p_rgh, Initial residual = 0.0003687703206, Final residual = 8.291138053e-07, No Iterations 5
diagonal:  Solving for rho, Initial residual = 0, Final residual = 0, No Iterations 0
time step continuity errors : sum local = 4.315057012e-11, global = 2.233902892e-12, cumulative = 4.065369375e-09
DILUPBiCG:  Solving for epsilon, Initial residual = 1.030261147e-06, Final residual = 5.112004613e-10, No Iterations 1
DILUPBiCG:  Solving for k, Initial residual = 2.188507035e-06, Final residual = 7.704403829e-10, No Iterations 1
ExecutionTime = 918.01 s  ClockTime = 9811 s

Courant Number mean: 0.0004669525931 max: 0.08452321567
Time = 639.545

diagonal:  Solving for rho, Initial residual = 0, Final residual = 0, No Iterations 0
PIMPLE: iteration 1
DILUPBiCG:  Solving for Ux, Initial residual = 8.039051703e-05, Final residual = 5.105003917e-09, No Iterations 1
DILUPBiCG:  Solving for Uy, Initial residual = 0.0001889739366, Final residual = 1.078487761e-08, No Iterations 1
DILUPBiCG:  Solving for Uz, Initial residual = 5.063615349e-06, Final residual = 4.569575168e-10, No Iterations 1
DILUPBiCG:  Solving for h, Initial residual = 1.153971254e-06, Final residual = 6.088974097e-10, No Iterations 1
GAMG:  Solving for p_rgh, Initial residual = 0.004208601415, Final residual = 1.798436425e-05, No Iterations 3
diagonal:  Solving for rho, Initial residual = 0, Final residual = 0, No Iterations 0
time step continuity errors : sum local = 9.360499996e-10, global = -2.813038603e-10, cumulative = 3.784065515e-09
GAMG:  Solving for p_rgh, Initial residual = 0.0002701200942, Final residual = 8.333396028e-07, No Iterations 6
diagonal:  Solving for rho, Initial residual = 0, Final residual = 0, No Iterations 0
time step continuity errors : sum local = 4.33749587e-11, global = -2.141344449e-12, cumulative = 3.781924171e-09
DILUPBiCG:  Solving for epsilon, Initial residual = 1.040415109e-06, Final residual = 4.958198069e-10, No Iterations 1
DILUPBiCG:  Solving for k, Initial residual = 2.16519532e-06, Final residual = 8.466828542e-10, No Iterations 1
ExecutionTime = 919.25 s  ClockTime = 9812 s

Courant Number mean: 0.0004669059095 max: 0.08452264749
Time = 639.55

diagonal:  Solving for rho, Initial residual = 0, Final residual = 0, No Iterations 0
PIMPLE: iteration 1
DILUPBiCG:  Solving for Ux, Initial residual = 8.780767633e-05, Final residual = 5.128838536e-09, No Iterations 1
DILUPBiCG:  Solving for Uy, Initial residual = 0.0002068846975, Final residual = 1.218252463e-08, No Iterations 1
DILUPBiCG:  Solving for Uz, Initial residual = 6.014808467e-06, Final residual = 4.752283122e-10, No Iterations 1
DILUPBiCG:  Solving for h, Initial residual = 1.15653473e-06, Final residual = 6.592543932e-10, No Iterations 1
GAMG:  Solving for p_rgh, Initial residual = 0.003619846214, Final residual = 2.183712441e-05, No Iterations 3
diagonal:  Solving for rho, Initial residual = 0, Final residual = 0, No Iterations 0
time step continuity errors : sum local = 1.135966807e-09, global = 4.219477553e-10, cumulative = 4.203871926e-09
GAMG:  Solving for p_rgh, Initial residual = 0.0003153823632, Final residual = 9.088195429e-07, No Iterations 6
diagonal:  Solving for rho, Initial residual = 0, Final residual = 0, No Iterations 0
time step continuity errors : sum local = 4.727600481e-11, global = 1.171923818e-12, cumulative = 4.20504385e-09
DILUPBiCG:  Solving for epsilon, Initial residual = 9.953121748e-07, Final residual = 9.953121748e-07, No Iterations 0
DILUPBiCG:  Solving for k, Initial residual = 2.051074398e-06, Final residual = 9.036989098e-10, No Iterations 1
ExecutionTime = 920.52 s  ClockTime = 9813 s

Courant Number mean: 0.0004669026514 max: 0.08452229275
Time = 639.555

diagonal:  Solving for rho, Initial residual = 0, Final residual = 0, No Iterations 0
PIMPLE: iteration 1
DILUPBiCG:  Solving for Ux, Initial residual = 7.610860019e-05, Final residual = 4.464481572e-09, No Iterations 1
DILUPBiCG:  Solving for Uy, Initial residual = 0.0001405422188, Final residual = 7.380126043e-09, No Iterations 1
DILUPBiCG:  Solving for Uz, Initial residual = 4.35219039e-06, Final residual = 3.627779863e-10, No Iterations 1
DILUPBiCG:  Solving for h, Initial residual = 1.185691231e-06, Final residual = 2.540433204e-10, No Iterations 1
GAMG:  Solving for p_rgh, Initial residual = 0.001862022077, Final residual = 1.389503728e-05, No Iterations 3
diagonal:  Solving for rho, Initial residual = 0, Final residual = 0, No Iterations 0
time step continuity errors : sum local = 7.220723045e-10, global = -1.669847091e-10, cumulative = 4.038059141e-09
GAMG:  Solving for p_rgh, Initial residual = 0.0002509207583, Final residual = 7.187015527e-07, No Iterations 6
diagonal:  Solving for rho, Initial residual = 0, Final residual = 0, No Iterations 0
time step continuity errors : sum local = 3.73630848e-11, global = -2.704792651e-13, cumulative = 4.037788661e-09
DILUPBiCG:  Solving for epsilon, Initial residual = 1.007783022e-06, Final residual = 4.984364171e-10, No Iterations 1
DILUPBiCG:  Solving for k, Initial residual = 2.014586344e-06, Final residual = 8.568471226e-10, No Iterations 1
ExecutionTime = 921.75 s  ClockTime = 9815 s

Courant Number mean: 0.0004669135706 max: 0.08452183499
Time = 639.56

diagonal:  Solving for rho, Initial residual = 0, Final residual = 0, No Iterations 0
PIMPLE: iteration 1
DILUPBiCG:  Solving for Ux, Initial residual = 2.224434168e-05, Final residual = 2.121338838e-09, No Iterations 1
DILUPBiCG:  Solving for Uy, Initial residual = 6.17469836e-05, Final residual = 4.504750929e-09, No Iterations 1
DILUPBiCG:  Solving for Uz, Initial residual = 3.099037965e-06, Final residual = 3.120103433e-10, No Iterations 1
DILUPBiCG:  Solving for h, Initial residual = 1.192564277e-06, Final residual = 1.804520964e-10, No Iterations 1
GAMG:  Solving for p_rgh, Initial residual = 0.0003262824518, Final residual = 1.742790145e-06, No Iterations 5
diagonal:  Solving for rho, Initial residual = 0, Final residual = 0, No Iterations 0
time step continuity errors : sum local = 9.05892406e-11, global = -4.748014715e-12, cumulative = 4.033040647e-09
GAMG:  Solving for p_rgh, Initial residual = 5.804711336e-05, Final residual = 6.952776313e-07, No Iterations 3
diagonal:  Solving for rho, Initial residual = 0, Final residual = 0, No Iterations 0
time step continuity errors : sum local = 3.6131588e-11, global = 3.708877421e-12, cumulative = 4.036749524e-09
DILUPBiCG:  Solving for epsilon, Initial residual = 9.952917094e-07, Final residual = 9.952917094e-07, No Iterations 0
DILUPBiCG:  Solving for k, Initial residual = 1.990587539e-06, Final residual = 8.310537654e-10, No Iterations 1
ExecutionTime = 923.05 s  ClockTime = 9816 s

Courant Number mean: 0.0004669210946 max: 0.08452126961
Time = 639.565

diagonal:  Solving for rho, Initial residual = 0, Final residual = 0, No Iterations 0
PIMPLE: iteration 1
DILUPBiCG:  Solving for Ux, Initial residual = 1.63615522e-05, Final residual = 1.662403838e-09, No Iterations 1
DILUPBiCG:  Solving for Uy, Initial residual = 5.026104186e-05, Final residual = 3.130871287e-09, No Iterations 1
DILUPBiCG:  Solving for Uz, Initial residual = 2.267097154e-06, Final residual = 2.765346347e-10, No Iterations 1
DILUPBiCG:  Solving for h, Initial residual = 1.152705021e-06, Final residual = 1.164748306e-10, No Iterations 1
GAMG:  Solving for p_rgh, Initial residual = 0.0001253108637, Final residual = 8.914865682e-07, No Iterations 6
diagonal:  Solving for rho, Initial residual = 0, Final residual = 0, No Iterations 0
time step continuity errors : sum local = 4.632724924e-11, global = -2.14394648e-12, cumulative = 4.034605578e-09
GAMG:  Solving for p_rgh, Initial residual = 6.365182361e-05, Final residual = 6.499175591e-07, No Iterations 3
diagonal:  Solving for rho, Initial residual = 0, Final residual = 0, No Iterations 0
time step continuity errors : sum local = 3.376709795e-11, global = 2.81756785e-12, cumulative = 4.037423145e-09
DILUPBiCG:  Solving for epsilon, Initial residual = 1.00325602e-06, Final residual = 4.959986228e-10, No Iterations 1
DILUPBiCG:  Solving for k, Initial residual = 1.969084183e-06, Final residual = 8.146890043e-10, No Iterations 1
ExecutionTime = 924.35 s  ClockTime = 9817 s

Courant Number mean: 0.0004669232076 max: 0.08452058694
Time = 639.57

diagonal:  Solving for rho, Initial residual = 0, Final residual = 0, No Iterations 0
PIMPLE: iteration 1
DILUPBiCG:  Solving for Ux, Initial residual = 2.087532384e-05, Final residual = 1.933004309e-09, No Iterations 1
DILUPBiCG:  Solving for Uy, Initial residual = 5.857621934e-05, Final residual = 4.163773102e-09, No Iterations 1
DILUPBiCG:  Solving for Uz, Initial residual = 3.030132824e-06, Final residual = 3.129721643e-10, No Iterations 1
DILUPBiCG:  Solving for h, Initial residual = 1.152578292e-06, Final residual = 1.233151495e-10, No Iterations 1
GAMG:  Solving for p_rgh, Initial residual = 9.105174194e-05, Final residual = 8.26425229e-07, No Iterations 5
diagonal:  Solving for rho, Initial residual = 0, Final residual = 0, No Iterations 0
time step continuity errors : sum local = 4.293722964e-11, global = 2.758607647e-12, cumulative = 4.040181753e-09
GAMG:  Solving for p_rgh, Initial residual = 4.269463771e-05, Final residual = 6.732310671e-07, No Iterations 2
diagonal:  Solving for rho, Initial residual = 0, Final residual = 0, No Iterations 0
time step continuity errors : sum local = 3.498336218e-11, global = -3.495412091e-12, cumulative = 4.036686341e-09
DILUPBiCG:  Solving for epsilon, Initial residual = 9.90032038e-07, Final residual = 9.90032038e-07, No Iterations 0
DILUPBiCG:  Solving for k, Initial residual = 1.968882139e-06, Final residual = 7.696296479e-10, No Iterations 1
ExecutionTime = 925.55 s  ClockTime = 9819 s

Courant Number mean: 0.000466930075 max: 0.0845201801
Time = 639.575

diagonal:  Solving for rho, Initial residual = 0, Final residual = 0, No Iterations 0
PIMPLE: iteration 1
                                                                                                                                                                                                                                                                                                                                                                                                                                                                                                                                                                                                                                                                                                                                                                                                                                                                                                                                                                                                                                                                                                                    